tar001
     RDKit          3D

 62 64  0  0  0  0  0  0  0  0999 V2000
   -4.2771    1.4342   -3.1558 N   0  0  0  0  0  4  0  0  0  0  0  0
   -4.5005    2.7604   -2.6705 C   0  0  0  0  0  0  0  0  0  0  0  0
   -5.9643    3.0412   -2.4028 C   0  0  0  0  0  0  0  0  0  0  0  0
   -6.7460    2.9102   -3.5225 O   0  0  0  0  0  0  0  0  0  0  0  0
   -3.9077    0.5289   -2.1146 C   0  0  0  0  0  0  0  0  0  0  0  0
   -2.4915    0.7278   -1.6317 C   0  0  0  0  0  0  0  0  0  0  0  0
   -2.2537   -0.2746   -0.5607 N   0  0  0  0  0  0  0  0  0  0  0  0
   -0.9737   -0.2987    0.0678 C   0  0  0  0  0  0  0  0  0  0  0  0
   -0.5999   -1.1633    1.0631 C   0  0  0  0  0  0  0  0  0  0  0  0
   -1.5268   -2.1512    1.5480 C   0  0  0  0  0  0  0  0  0  0  0  0
   -2.6950   -2.2388    1.0762 O   0  0  0  0  0  0  0  0  0  0  0  0
   -1.1624   -3.1097    2.6173 C   0  0  0  0  0  0  0  0  0  0  0  0
   -2.1388   -4.0273    3.0123 C   0  0  0  0  0  0  0  0  0  0  0  0
   -3.3279   -4.0491    2.4698 O   0  0  0  0  0  0  0  0  0  0  0  0
   -1.8287   -4.9484    4.0199 C   0  0  0  0  0  0  0  0  0  0  0  0
   -0.5963   -4.9182    4.5753 C   0  0  0  0  0  0  0  0  0  0  0  0
    0.3775   -3.9861    4.1654 C   0  0  0  0  0  0  0  0  0  0  0  0
    1.5952   -4.0218    4.7754 O   0  0  0  0  0  0  0  0  0  0  0  0
    0.0920   -3.0653    3.1697 C   0  0  0  0  0  0  0  0  0  0  0  0
    1.0649   -2.0721    2.7019 C   0  0  0  0  0  0  0  0  0  0  0  0
    2.1780   -2.0885    3.2426 O   0  0  0  0  0  0  0  0  0  0  0  0
    0.6844   -1.1402    1.6509 C   0  0  0  0  0  0  0  0  0  0  0  0
    1.6064   -0.2175    1.2165 C   0  0  0  0  0  0  0  0  0  0  0  0
    2.8976   -0.0563    1.7404 N   0  0  0  0  0  0  0  0  0  0  0  0
    3.8914    0.8223    1.1205 C   0  0  0  0  0  0  0  0  0  0  0  0
    4.3878    0.3436   -0.1959 C   0  0  0  0  0  0  0  0  0  0  0  0
    5.3542    1.3493   -0.6648 N   0  0  0  0  0  4  0  0  0  0  0  0
    4.6699    2.2749   -1.5753 C   0  0  0  0  0  0  0  0  0  0  0  0
    5.6020    2.4660   -2.7549 C   0  0  0  0  0  0  0  0  0  0  0  0
    6.8215    2.9991   -2.3332 O   0  0  0  0  0  0  0  0  0  0  0  0
    1.2270    0.6503    0.2156 C   0  0  0  0  0  0  0  0  0  0  0  0
   -0.0107    0.6333   -0.3566 C   0  0  0  0  0  0  0  0  0  0  0  0
   -5.1807    1.0908   -3.5683 H   0  0  0  0  0  0  0  0  0  0  0  0
   -3.5999    1.4461   -3.9513 H   0  0  0  0  0  0  0  0  0  0  0  0
   -3.8883    2.9524   -1.7732 H   0  0  0  0  0  0  0  0  0  0  0  0
   -4.1665    3.4983   -3.4336 H   0  0  0  0  0  0  0  0  0  0  0  0
   -6.0899    4.0501   -2.0032 H   0  0  0  0  0  0  0  0  0  0  0  0
   -6.2667    2.3353   -1.5867 H   0  0  0  0  0  0  0  0  0  0  0  0
   -7.3844    2.1539   -3.4869 H   0  0  0  0  0  0  0  0  0  0  0  0
   -4.0083   -0.5331   -2.4197 H   0  0  0  0  0  0  0  0  0  0  0  0
   -4.5692    0.7074   -1.2398 H   0  0  0  0  0  0  0  0  0  0  0  0
   -2.2876    1.7381   -1.2659 H   0  0  0  0  0  0  0  0  0  0  0  0
   -1.7577    0.5147   -2.4385 H   0  0  0  0  0  0  0  0  0  0  0  0
   -3.0164   -0.9091   -0.3133 H   0  0  0  0  0  0  0  0  0  0  0  0
   -4.1355   -4.0074    2.0489 H   0  0  0  0  0  0  0  0  0  0  0  0
   -2.5954   -5.6753    4.3359 H   0  0  0  0  0  0  0  0  0  0  0  0
   -0.3410   -5.6325    5.3637 H   0  0  0  0  0  0  0  0  0  0  0  0
    2.4117   -3.5599    4.7298 H   0  0  0  0  0  0  0  0  0  0  0  0
    3.2450   -0.5213    2.5969 H   0  0  0  0  0  0  0  0  0  0  0  0
    4.7896    0.9620    1.7719 H   0  0  0  0  0  0  0  0  0  0  0  0
    3.4614    1.8350    1.0148 H   0  0  0  0  0  0  0  0  0  0  0  0
    4.9476   -0.6337   -0.0296 H   0  0  0  0  0  0  0  0  0  0  0  0
    3.6355    0.0964   -0.9489 H   0  0  0  0  0  0  0  0  0  0  0  0
    5.7623    1.8763    0.1226 H   0  0  0  0  0  0  0  0  0  0  0  0
    6.1047    0.8270   -1.1434 H   0  0  0  0  0  0  0  0  0  0  0  0
    3.7145    1.8687   -1.9343 H   0  0  0  0  0  0  0  0  0  0  0  0
    4.4624    3.2370   -1.0687 H   0  0  0  0  0  0  0  0  0  0  0  0
    5.8349    1.4428   -3.1415 H   0  0  0  0  0  0  0  0  0  0  0  0
    5.0921    3.1042   -3.4968 H   0  0  0  0  0  0  0  0  0  0  0  0
    6.7564    3.8852   -1.9466 H   0  0  0  0  0  0  0  0  0  0  0  0
    1.9055    1.4122   -0.1628 H   0  0  0  0  0  0  0  0  0  0  0  0
   -0.2846    1.3241   -1.1409 H   0  0  0  0  0  0  0  0  0  0  0  0
  1  2  1  0
  2  3  1  0
  3  4  1  0
  1  5  1  0
  5  6  1  0
  6  7  1  0
  7  8  1  0
  8  9  2  0
  9 10  1  0
 10 11  2  0
 10 12  1  0
 12 13  2  0
 13 14  1  0
 13 15  1  0
 15 16  2  0
 16 17  1  0
 17 18  1  0
 17 19  2  0
 19 20  1  0
 20 21  2  0
 20 22  1  0
 22 23  2  0
 23 24  1  0
 24 25  1  0
 25 26  1  0
 26 27  1  0
 27 28  1  0
 28 29  1  0
 29 30  1  0
 23 31  1  0
 31 32  2  0
 32  8  1  0
 22  9  1  0
 19 12  1  0
  1 33  1  0
  1 34  1  0
  2 35  1  0
  2 36  1  0
  3 37  1  0
  3 38  1  0
  4 39  1  0
  5 40  1  0
  5 41  1  0
  6 42  1  0
  6 43  1  0
  7 44  1  0
 14 45  1  0
 15 46  1  0
 16 47  1  0
 18 48  1  0
 24 49  1  0
 25 50  1  0
 25 51  1  0
 26 52  1  0
 26 53  1  0
 27 54  1  0
 27 55  1  0
 28 56  1  0
 28 57  1  0
 29 58  1  0
 29 59  1  0
 30 60  1  0
 31 61  1  0
 32 62  1  0
M  CHG  2   1   1  27   1
M  END
$$$$
tar002
     RDKit          3D

 73 75  0  0  0  0  0  0  0  0999 V2000
   -5.6229    2.1992   -5.6045 N   0  0  0  0  0  4  0  0  0  0  0  0
   -5.5799    1.2796   -4.4872 C   0  0  0  0  0  0  0  0  0  0  0  0
   -4.5846    1.6338   -3.4611 C   0  0  0  0  0  0  0  0  0  0  0  0
   -3.8454    2.7151   -3.6365 C   0  0  0  0  0  0  0  0  0  0  0  0
   -2.8063    3.1891   -2.6845 C   0  0  0  0  0  0  0  0  0  0  0  0
   -3.1069    2.5372   -1.3429 C   0  0  2  0  0  0  0  0  0  0  0  0
   -3.1994    1.0595   -1.6251 C   0  0  1  0  0  0  0  0  0  0  0  0
   -3.0049    0.2604   -0.5359 O   0  0  0  0  0  0  0  0  0  0  0  0
   -1.9111   -0.5916   -0.6192 C   0  0  1  0  0  0  0  0  0  0  0  0
   -0.9060   -0.1456    0.3840 C   0  0  2  0  0  0  0  0  0  0  0  0
    0.1010    0.6553   -0.1560 O   0  0  0  0  0  0  0  0  0  0  0  0
   -0.2307   -1.2709    1.1273 C   0  0  1  0  0  0  0  0  0  0  0  0
    0.5971   -0.7291    2.0810 O   0  0  0  0  0  0  0  0  0  0  0  0
    1.9342   -1.0690    1.9287 C   0  0  1  0  0  0  0  0  0  0  0  0
    2.6277    0.1414    1.7240 O   0  0  0  0  0  0  0  0  0  0  0  0
    3.8864   -0.0950    1.1763 C   0  0  0  0  0  0  0  0  0  0  0  0
    4.5725   -1.2698    1.8795 C   0  0  2  0  0  0  0  0  0  0  0  0
    6.0702   -1.0619    1.9273 C   0  0  0  0  0  0  0  0  0  0  0  0
    4.2534   -2.4476    1.2261 O   0  0  0  0  0  0  0  0  0  0  0  0
    3.9734   -1.3301    3.2684 C   0  0  1  0  0  0  0  0  0  0  0  0
    2.5338   -1.7331    3.1233 C   0  0  1  0  0  0  0  0  0  0  0  0
    1.8032   -1.5251    4.2890 O   0  0  0  0  0  0  0  0  0  0  0  0
    4.7173   -2.2084    4.1421 N   0  0  0  0  0  4  0  0  0  0  0  0
    4.3414   -3.5847    4.0418 C   0  0  0  0  0  0  0  0  0  0  0  0
   -1.3524   -2.0861    1.7419 C   0  0  1  0  0  0  0  0  0  0  0  0
   -1.9876   -2.8152    0.5939 C   0  0  0  0  0  0  0  0  0  0  0  0
   -2.3347   -1.9959   -0.5843 C   0  0  2  0  0  0  0  0  0  0  0  0
   -1.8614   -2.7214   -1.7788 N   0  0  0  0  0  4  0  0  0  0  0  0
   -0.8421   -3.0823    2.6631 N   0  0  0  0  0  4  0  0  0  0  0  0
   -4.4141    0.8402   -2.3064 O   0  0  0  0  0  0  0  0  0  0  0  0
   -4.3383    3.1087   -0.8767 N   0  0  0  0  0  4  0  0  0  0  0  0
   -4.6969    2.2884   -6.0774 H   0  0  0  0  0  0  0  0  0  0  0  0
   -5.8480    3.1473   -5.2141 H   0  0  0  0  0  0  0  0  0  0  0  0
   -6.3772    1.9303   -6.2861 H   0  0  0  0  0  0  0  0  0  0  0  0
   -5.2458    0.2940   -4.9271 H   0  0  0  0  0  0  0  0  0  0  0  0
   -6.5811    1.0898   -4.0827 H   0  0  0  0  0  0  0  0  0  0  0  0
   -3.9618    3.3436   -4.5252 H   0  0  0  0  0  0  0  0  0  0  0  0
   -1.8117    2.7786   -3.0112 H   0  0  0  0  0  0  0  0  0  0  0  0
   -2.8318    4.2781   -2.6343 H   0  0  0  0  0  0  0  0  0  0  0  0
   -2.3044    2.7105   -0.6026 H   0  0  0  0  0  0  0  0  0  0  0  0
   -2.3860    0.8171   -2.3488 H   0  0  0  0  0  0  0  0  0  0  0  0
   -1.4530   -0.3785   -1.6320 H   0  0  0  0  0  0  0  0  0  0  0  0
   -1.3950    0.4922    1.1792 H   0  0  0  0  0  0  0  0  0  0  0  0
   -0.0315    0.7876   -1.1265 H   0  0  0  0  0  0  0  0  0  0  0  0
    0.2981   -1.8996    0.3810 H   0  0  0  0  0  0  0  0  0  0  0  0
    2.0414   -1.7197    1.0489 H   0  0  0  0  0  0  0  0  0  0  0  0
    3.8776   -0.2288    0.0905 H   0  0  0  0  0  0  0  0  0  0  0  0
    4.5133    0.7958    1.4183 H   0  0  0  0  0  0  0  0  0  0  0  0
    6.3125   -0.4797    2.8385 H   0  0  0  0  0  0  0  0  0  0  0  0
    6.4577   -0.6128    1.0067 H   0  0  0  0  0  0  0  0  0  0  0  0
    6.5391   -2.0595    2.0622 H   0  0  0  0  0  0  0  0  0  0  0  0
    4.7349   -2.4965    0.3602 H   0  0  0  0  0  0  0  0  0  0  0  0
    3.9697   -0.2930    3.7139 H   0  0  0  0  0  0  0  0  0  0  0  0
    2.5053   -2.8402    2.9436 H   0  0  0  0  0  0  0  0  0  0  0  0
    2.2473   -0.8543    4.8623 H   0  0  0  0  0  0  0  0  0  0  0  0
    5.7370   -2.0589    3.9964 H   0  0  0  0  0  0  0  0  0  0  0  0
    4.5247   -1.8966    5.1383 H   0  0  0  0  0  0  0  0  0  0  0  0
    4.2055   -3.9645    3.0302 H   0  0  0  0  0  0  0  0  0  0  0  0
    3.4570   -3.8343    4.6831 H   0  0  0  0  0  0  0  0  0  0  0  0
    5.1829   -4.1890    4.4922 H   0  0  0  0  0  0  0  0  0  0  0  0
   -2.0907   -1.4215    2.2208 H   0  0  0  0  0  0  0  0  0  0  0  0
   -2.8738   -3.3652    1.0304 H   0  0  0  0  0  0  0  0  0  0  0  0
   -1.2742   -3.6535    0.3344 H   0  0  0  0  0  0  0  0  0  0  0  0
   -3.4622   -2.0439   -0.6932 H   0  0  0  0  0  0  0  0  0  0  0  0
   -0.9948   -2.2233   -2.0955 H   0  0  0  0  0  0  0  0  0  0  0  0
   -2.5381   -2.6444   -2.5615 H   0  0  0  0  0  0  0  0  0  0  0  0
   -1.6918   -3.7166   -1.5823 H   0  0  0  0  0  0  0  0  0  0  0  0
   -0.6255   -2.5801    3.5529 H   0  0  0  0  0  0  0  0  0  0  0  0
   -1.4816   -3.8691    2.8085 H   0  0  0  0  0  0  0  0  0  0  0  0
    0.0785   -3.4499    2.3095 H   0  0  0  0  0  0  0  0  0  0  0  0
   -4.3747    3.0672    0.1802 H   0  0  0  0  0  0  0  0  0  0  0  0
   -5.1878    2.7375   -1.3183 H   0  0  0  0  0  0  0  0  0  0  0  0
   -4.3328    4.1502   -1.0970 H   0  0  0  0  0  0  0  0  0  0  0  0
  1  2  1  0
  2  3  1  0
  3  4  2  0
  4  5  1  0
  5  6  1  0
  6  7  1  0
  7  8  1  0
  8  9  1  0
  9 10  1  0
 10 11  1  0
 10 12  1  0
 12 13  1  0
 13 14  1  0
 14 15  1  0
 15 16  1  0
 16 17  1  0
 17 18  1  0
 17 19  1  6
 17 20  1  0
 20 21  1  0
 21 22  1  0
 20 23  1  0
 23 24  1  0
 12 25  1  0
 25 26  1  0
 26 27  1  0
 27 28  1  0
 25 29  1  0
  7 30  1  0
  6 31  1  0
 30  3  1  0
 27  9  1  0
 21 14  1  0
  1 32  1  0
  1 33  1  0
  1 34  1  0
  2 35  1  0
  2 36  1  0
  4 37  1  0
  5 38  1  0
  5 39  1  0
  6 40  1  1
  7 41  1  6
  9 42  1  6
 10 43  1  1
 11 44  1  0
 12 45  1  6
 14 46  1  6
 16 47  1  0
 16 48  1  0
 18 49  1  0
 18 50  1  0
 18 51  1  0
 19 52  1  0
 20 53  1  1
 21 54  1  6
 22 55  1  0
 23 56  1  0
 23 57  1  0
 24 58  1  0
 24 59  1  0
 24 60  1  0
 25 61  1  1
 26 62  1  0
 26 63  1  0
 27 64  1  6
 28 65  1  0
 28 66  1  0
 28 67  1  0
 29 68  1  0
 29 69  1  0
 29 70  1  0
 31 71  1  0
 31 72  1  0
 31 73  1  0
M  CHG  5   1   1  23   1  28   1  29   1  31   1
M  END
$$$$
tar003
     RDKit          3D

 79 81  0  0  0  0  0  0  0  0999 V2000
    1.6495   -0.7500    6.4692 N   0  0  0  0  0  4  0  0  0  0  0  0
    2.3835   -1.9793    6.1949 C   0  0  0  0  0  0  0  0  0  0  0  0
    1.8112   -2.5710    4.9521 C   0  0  0  0  0  0  0  0  0  0  0  0
    1.2859   -3.7676    5.0012 C   0  0  0  0  0  0  0  0  0  0  0  0
    0.6949   -4.4495    3.8467 C   0  0  0  0  0  0  0  0  0  0  0  0
    0.3848   -3.4626    2.7723 C   0  0  2  0  0  0  0  0  0  0  0  0
    1.4973   -2.4874    2.5046 C   0  0  1  0  0  0  0  0  0  0  0  0
    1.0174   -1.4983    1.6747 O   0  0  0  0  0  0  0  0  0  0  0  0
    1.8030   -1.2945    0.5423 C   0  0  1  0  0  0  0  0  0  0  0  0
    1.0648   -1.6122   -0.6992 C   0  0  2  0  0  0  0  0  0  0  0  0
    1.9039   -2.1248   -1.6968 O   0  0  0  0  0  0  0  0  0  0  0  0
    0.2711   -0.5020   -1.2850 C   0  0  1  0  0  0  0  0  0  0  0  0
   -0.9065   -0.2197   -0.5990 O   0  0  0  0  0  0  0  0  0  0  0  0
   -2.0413   -0.4209   -1.3795 C   0  0  1  0  0  0  0  0  0  0  0  0
   -2.8702   -1.3700   -0.8318 O   0  0  0  0  0  0  0  0  0  0  0  0
   -3.8156   -1.7980   -1.7483 C   0  0  0  0  0  0  0  0  0  0  0  0
   -4.3016   -0.7083   -2.6587 C   0  0  2  0  0  0  0  0  0  0  0  0
   -5.7721   -0.9231   -3.0321 C   0  0  0  0  0  0  0  0  0  0  0  0
   -3.5886   -0.7032   -3.8595 O   0  0  0  0  0  0  0  0  0  0  0  0
   -4.1968    0.6603   -2.0447 C   0  0  1  0  0  0  0  0  0  0  0  0
   -2.8158    0.8767   -1.4699 C   0  0  1  0  0  0  0  0  0  0  0  0
   -2.9575    1.3365   -0.1435 O   0  0  0  0  0  0  0  0  0  0  0  0
   -4.4520    1.6278   -3.0951 N   0  0  0  0  0  4  0  0  0  0  0  0
   -5.4792    2.5745   -2.7322 C   0  0  0  0  0  0  0  0  0  0  0  0
    1.1347    0.7122   -1.4735 C   0  0  1  0  0  0  0  0  0  0  0  0
    1.7326    1.1138   -0.1825 C   0  0  0  0  0  0  0  0  0  0  0  0
    2.4374    0.0650    0.5769 C   0  0  2  0  0  0  0  0  0  0  0  0
    3.8384    0.0034    0.1833 N   0  0  0  0  0  4  0  0  0  0  0  0
    2.0656    0.5200   -2.5483 N   0  0  0  0  0  4  0  0  0  0  0  0
    2.1527    1.7116   -3.3694 C   0  0  0  0  0  0  0  0  0  0  0  0
    3.5170    2.3321   -3.3643 C   0  0  0  0  0  0  0  0  0  0  0  0
    1.8253   -1.8788    3.7485 O   0  0  0  0  0  0  0  0  0  0  0  0
   -0.7784   -2.6854    3.1821 N   0  0  0  0  0  4  0  0  0  0  0  0
    2.1319    0.0296    5.9729 H   0  0  0  0  0  0  0  0  0  0  0  0
    1.6006   -0.6287    7.5000 H   0  0  0  0  0  0  0  0  0  0  0  0
    0.6866   -0.8690    6.0835 H   0  0  0  0  0  0  0  0  0  0  0  0
    3.4620   -1.7672    6.0343 H   0  0  0  0  0  0  0  0  0  0  0  0
    2.2353   -2.6559    7.0449 H   0  0  0  0  0  0  0  0  0  0  0  0
    1.2825   -4.2973    5.9526 H   0  0  0  0  0  0  0  0  0  0  0  0
   -0.2888   -4.8896    4.1849 H   0  0  0  0  0  0  0  0  0  0  0  0
    1.2920   -5.3163    3.5040 H   0  0  0  0  0  0  0  0  0  0  0  0
    0.1181   -4.0026    1.8261 H   0  0  0  0  0  0  0  0  0  0  0  0
    2.4274   -2.9623    2.1420 H   0  0  0  0  0  0  0  0  0  0  0  0
    2.6522   -2.0362    0.6326 H   0  0  0  0  0  0  0  0  0  0  0  0
    0.3464   -2.4511   -0.4649 H   0  0  0  0  0  0  0  0  0  0  0  0
    2.4081   -2.9040   -1.3628 H   0  0  0  0  0  0  0  0  0  0  0  0
   -0.0433   -0.8267   -2.3206 H   0  0  0  0  0  0  0  0  0  0  0  0
   -1.7607   -0.7710   -2.4043 H   0  0  0  0  0  0  0  0  0  0  0  0
   -3.4300   -2.6754   -2.3120 H   0  0  0  0  0  0  0  0  0  0  0  0
   -4.7010   -2.1607   -1.1648 H   0  0  0  0  0  0  0  0  0  0  0  0
   -5.9678   -2.0065   -2.8900 H   0  0  0  0  0  0  0  0  0  0  0  0
   -6.4436   -0.3738   -2.3593 H   0  0  0  0  0  0  0  0  0  0  0  0
   -5.9415   -0.5958   -4.0753 H   0  0  0  0  0  0  0  0  0  0  0  0
   -3.3612   -1.6410   -4.0908 H   0  0  0  0  0  0  0  0  0  0  0  0
   -4.9645    0.7291   -1.2428 H   0  0  0  0  0  0  0  0  0  0  0  0
   -2.2736    1.6525   -2.0384 H   0  0  0  0  0  0  0  0  0  0  0  0
   -3.8092    0.9577    0.2429 H   0  0  0  0  0  0  0  0  0  0  0  0
   -4.7678    1.1669   -3.9919 H   0  0  0  0  0  0  0  0  0  0  0  0
   -3.5522    2.1114   -3.3258 H   0  0  0  0  0  0  0  0  0  0  0  0
   -6.0927    2.1446   -1.9053 H   0  0  0  0  0  0  0  0  0  0  0  0
   -5.0225    3.5215   -2.3911 H   0  0  0  0  0  0  0  0  0  0  0  0
   -6.1300    2.8351   -3.6062 H   0  0  0  0  0  0  0  0  0  0  0  0
    0.4408    1.5418   -1.8009 H   0  0  0  0  0  0  0  0  0  0  0  0
    0.9196    1.5392    0.4658 H   0  0  0  0  0  0  0  0  0  0  0  0
    2.4383    1.9613   -0.3606 H   0  0  0  0  0  0  0  0  0  0  0  0
    2.4551    0.3787    1.6633 H   0  0  0  0  0  0  0  0  0  0  0  0
    4.0370   -0.8460   -0.4015 H   0  0  0  0  0  0  0  0  0  0  0  0
    4.4717   -0.1149    1.0306 H   0  0  0  0  0  0  0  0  0  0  0  0
    4.1647    0.8897   -0.2625 H   0  0  0  0  0  0  0  0  0  0  0  0
    3.0138    0.2570   -2.2712 H   0  0  0  0  0  0  0  0  0  0  0  0
    1.7022   -0.2414   -3.1854 H   0  0  0  0  0  0  0  0  0  0  0  0
    1.8575    1.5384   -4.4193 H   0  0  0  0  0  0  0  0  0  0  0  0
    1.4146    2.4688   -2.9755 H   0  0  0  0  0  0  0  0  0  0  0  0
    3.3990    3.3648   -3.8002 H   0  0  0  0  0  0  0  0  0  0  0  0
    3.8794    2.3664   -2.3343 H   0  0  0  0  0  0  0  0  0  0  0  0
    4.2087    1.8063   -4.0658 H   0  0  0  0  0  0  0  0  0  0  0  0
   -1.3122   -2.3847    2.3200 H   0  0  0  0  0  0  0  0  0  0  0  0
   -0.5091   -1.7971    3.6591 H   0  0  0  0  0  0  0  0  0  0  0  0
   -1.3897   -3.2007    3.8427 H   0  0  0  0  0  0  0  0  0  0  0  0
  1  2  1  0
  2  3  1  0
  3  4  2  0
  4  5  1  0
  5  6  1  0
  6  7  1  0
  7  8  1  0
  8  9  1  0
  9 10  1  0
 10 11  1  0
 10 12  1  0
 12 13  1  0
 13 14  1  0
 14 15  1  0
 15 16  1  0
 16 17  1  0
 17 18  1  0
 17 19  1  6
 17 20  1  0
 20 21  1  0
 21 22  1  0
 20 23  1  0
 23 24  1  0
 12 25  1  0
 25 26  1  0
 26 27  1  0
 27 28  1  0
 25 29  1  0
 29 30  1  0
 30 31  1  0
  7 32  1  0
  6 33  1  0
 32  3  1  0
 27  9  1  0
 21 14  1  0
  1 34  1  0
  1 35  1  0
  1 36  1  0
  2 37  1  0
  2 38  1  0
  4 39  1  0
  5 40  1  0
  5 41  1  0
  6 42  1  6
  7 43  1  6
  9 44  1  1
 10 45  1  1
 11 46  1  0
 12 47  1  6
 14 48  1  6
 16 49  1  0
 16 50  1  0
 18 51  1  0
 18 52  1  0
 18 53  1  0
 19 54  1  0
 20 55  1  1
 21 56  1  6
 22 57  1  0
 23 58  1  0
 23 59  1  0
 24 60  1  0
 24 61  1  0
 24 62  1  0
 25 63  1  6
 26 64  1  0
 26 65  1  0
 27 66  1  1
 28 67  1  0
 28 68  1  0
 28 69  1  0
 29 70  1  0
 29 71  1  0
 30 72  1  0
 30 73  1  0
 31 74  1  0
 31 75  1  0
 31 76  1  0
 33 77  1  0
 33 78  1  0
 33 79  1  0
M  CHG  5   1   1  23   1  28   1  29   1  33   1
M  END
$$$$
tar004
     RDKit          3D

 87 89  0  0  0  0  0  0  0  0999 V2000
    1.5997   -4.6955    7.1587 N   0  0  0  0  0  4  0  0  0  0  0  0
    0.4703   -3.8617    7.4151 C   0  0  0  0  0  0  0  0  0  0  0  0
    0.0480   -2.9790    6.2893 C   0  0  0  0  0  0  0  0  0  0  0  0
   -0.3444   -3.7442    5.0582 C   0  0  2  0  0  0  0  0  0  0  0  0
    0.6391   -4.5357    4.5247 O   0  0  0  0  0  0  0  0  0  0  0  0
   -1.0078   -2.8604    4.0784 C   0  0  0  0  0  0  0  0  0  0  0  0
   -1.8781   -2.0596    4.4892 O   0  0  0  0  0  0  0  0  0  0  0  0
   -0.7192   -2.8603    2.6808 N   0  0  0  0  0  0  0  0  0  0  0  0
   -1.3718   -1.9978    1.7647 C   0  0  2  0  0  0  0  0  0  0  0  0
   -2.2875   -2.8393    0.8873 C   0  0  0  0  0  0  0  0  0  0  0  0
   -3.1713   -1.8542    0.1832 C   0  0  1  0  0  0  0  0  0  0  0  0
   -2.4732   -0.7717   -0.5578 C   0  0  1  0  0  0  0  0  0  0  0  0
   -3.3394    0.3474   -0.4866 O   0  0  0  0  0  0  0  0  0  0  0  0
   -3.8966    0.6664   -1.7224 C   0  0  1  0  0  0  0  0  0  0  0  0
   -5.2647    0.5551   -1.5577 O   0  0  0  0  0  0  0  0  0  0  0  0
   -6.0001    0.9006   -2.6746 C   0  0  2  0  0  0  0  0  0  0  0  0
   -6.1207   -0.2373   -3.6675 C   0  0  0  0  0  0  0  0  0  0  0  0
   -6.9064    0.2231   -4.7980 N   0  0  0  0  0  4  0  0  0  0  0  0
   -5.4976    2.1719   -3.3256 C   0  0  1  0  0  0  0  0  0  0  0  0
   -6.5015    2.9687   -3.8243 O   0  0  0  0  0  0  0  0  0  0  0  0
   -4.6603    2.9075   -2.2901 C   0  0  2  0  0  0  0  0  0  0  0  0
   -4.3779    4.2048   -2.6299 O   0  0  0  0  0  0  0  0  0  0  0  0
   -3.4255    2.0543   -2.0773 C   0  0  1  0  0  0  0  0  0  0  0  0
   -2.6290    2.5906   -1.0509 O   0  0  0  0  0  0  0  0  0  0  0  0
   -1.1457   -0.3364   -0.0938 C   0  0  2  0  0  0  0  0  0  0  0  0
   -0.3037   -0.2115   -1.2016 O   0  0  0  0  0  0  0  0  0  0  0  0
   -0.4550   -1.2275    0.8974 C   0  0  1  0  0  0  0  0  0  0  0  0
    0.3884   -0.4889    1.7176 O   0  0  0  0  0  0  0  0  0  0  0  0
    1.7292   -0.8277    1.5811 C   0  0  1  0  0  0  0  0  0  0  0  0
    2.3581    0.2314    0.9976 O   0  0  0  0  0  0  0  0  0  0  0  0
    3.6155    0.5299    1.2993 C   0  0  2  0  0  0  0  0  0  0  0  0
    4.4993    0.2352    0.0765 C   0  0  0  0  0  0  0  0  0  0  0  0
    4.3971   -1.1096   -0.2499 O   0  0  0  0  0  0  0  0  0  0  0  0
    4.2783   -0.0363    2.4857 C   0  0  1  0  0  0  0  0  0  0  0  0
    4.0966    0.7794    3.5988 O   0  0  0  0  0  0  0  0  0  0  0  0
    3.7970   -1.4440    2.7274 C   0  0  2  0  0  0  0  0  0  0  0  0
    2.2720   -1.2984    2.8674 C   0  0  1  0  0  0  0  0  0  0  0  0
    2.1065   -0.3661    3.9110 O   0  0  0  0  0  0  0  0  0  0  0  0
    4.3687   -2.0301    3.9257 N   0  0  0  0  0  4  0  0  0  0  0  0
   -4.0541   -2.6181   -0.6967 N   0  0  0  0  0  4  0  0  0  0  0  0
    1.8560   -5.1362    8.0943 H   0  0  0  0  0  0  0  0  0  0  0  0
    2.4186   -4.1531    6.8041 H   0  0  0  0  0  0  0  0  0  0  0  0
    1.3379   -5.5059    6.5595 H   0  0  0  0  0  0  0  0  0  0  0  0
    0.7197   -3.1867    8.2871 H   0  0  0  0  0  0  0  0  0  0  0  0
   -0.3957   -4.4925    7.7080 H   0  0  0  0  0  0  0  0  0  0  0  0
    0.8212   -2.2258    6.0235 H   0  0  0  0  0  0  0  0  0  0  0  0
   -0.8986   -2.4671    6.6381 H   0  0  0  0  0  0  0  0  0  0  0  0
   -1.1503   -4.4649    5.4100 H   0  0  0  0  0  0  0  0  0  0  0  0
    1.5489   -4.1991    4.5711 H   0  0  0  0  0  0  0  0  0  0  0  0
    0.0193   -3.5497    2.3714 H   0  0  0  0  0  0  0  0  0  0  0  0
   -2.0357   -1.3033    2.3207 H   0  0  0  0  0  0  0  0  0  0  0  0
   -2.9190   -3.4326    1.5795 H   0  0  0  0  0  0  0  0  0  0  0  0
   -1.7130   -3.4491    0.1891 H   0  0  0  0  0  0  0  0  0  0  0  0
   -3.8587   -1.4248    0.9635 H   0  0  0  0  0  0  0  0  0  0  0  0
   -2.4880   -1.0788   -1.6466 H   0  0  0  0  0  0  0  0  0  0  0  0
   -3.5131   -0.0542   -2.4996 H   0  0  0  0  0  0  0  0  0  0  0  0
   -7.0322    1.1181   -2.3235 H   0  0  0  0  0  0  0  0  0  0  0  0
   -6.6544   -1.0768   -3.2215 H   0  0  0  0  0  0  0  0  0  0  0  0
   -5.1339   -0.5476   -4.0632 H   0  0  0  0  0  0  0  0  0  0  0  0
   -7.5702    0.9972   -4.5080 H   0  0  0  0  0  0  0  0  0  0  0  0
   -6.3366    0.5972   -5.5803 H   0  0  0  0  0  0  0  0  0  0  0  0
   -7.5540   -0.5323   -5.1598 H   0  0  0  0  0  0  0  0  0  0  0  0
   -4.7966    1.8884   -4.1324 H   0  0  0  0  0  0  0  0  0  0  0  0
   -6.2073    3.4648   -4.6370 H   0  0  0  0  0  0  0  0  0  0  0  0
   -5.2499    2.8323   -1.3326 H   0  0  0  0  0  0  0  0  0  0  0  0
   -3.5504    4.2139   -3.1617 H   0  0  0  0  0  0  0  0  0  0  0  0
   -2.8085    2.0535   -3.0021 H   0  0  0  0  0  0  0  0  0  0  0  0
   -1.7189    2.7930   -1.3691 H   0  0  0  0  0  0  0  0  0  0  0  0
   -1.1711    0.6828    0.3744 H   0  0  0  0  0  0  0  0  0  0  0  0
   -0.4748   -0.8906   -1.8909 H   0  0  0  0  0  0  0  0  0  0  0  0
    0.2060   -1.9426    0.3379 H   0  0  0  0  0  0  0  0  0  0  0  0
    1.7784   -1.6549    0.8380 H   0  0  0  0  0  0  0  0  0  0  0  0
    3.6896    1.6583    1.4011 H   0  0  0  0  0  0  0  0  0  0  0  0
    4.2137    0.8963   -0.7589 H   0  0  0  0  0  0  0  0  0  0  0  0
    5.5459    0.4297    0.3509 H   0  0  0  0  0  0  0  0  0  0  0  0
    4.2427   -1.1943   -1.2200 H   0  0  0  0  0  0  0  0  0  0  0  0
    5.3878   -0.1044    2.3184 H   0  0  0  0  0  0  0  0  0  0  0  0
    4.9368    1.2370    3.8632 H   0  0  0  0  0  0  0  0  0  0  0  0
    3.9759   -2.0528    1.8391 H   0  0  0  0  0  0  0  0  0  0  0  0
    1.9311   -2.2735    3.2094 H   0  0  0  0  0  0  0  0  0  0  0  0
    2.2609   -0.7655    4.7862 H   0  0  0  0  0  0  0  0  0  0  0  0
    4.9378   -2.8653    3.6044 H   0  0  0  0  0  0  0  0  0  0  0  0
    3.5901   -2.3811    4.5141 H   0  0  0  0  0  0  0  0  0  0  0  0
    5.0301   -1.4007    4.4024 H   0  0  0  0  0  0  0  0  0  0  0  0
   -4.3790   -3.4819   -0.1794 H   0  0  0  0  0  0  0  0  0  0  0  0
   -3.5146   -2.9923   -1.5151 H   0  0  0  0  0  0  0  0  0  0  0  0
   -4.9035   -2.0965   -0.9451 H   0  0  0  0  0  0  0  0  0  0  0  0
  1  2  1  0
  2  3  1  0
  3  4  1  0
  4  5  1  0
  4  6  1  0
  6  7  2  0
  6  8  1  0
  8  9  1  0
  9 10  1  0
 10 11  1  0
 11 12  1  0
 12 13  1  0
 13 14  1  0
 14 15  1  0
 15 16  1  0
 16 17  1  0
 17 18  1  0
 16 19  1  0
 19 20  1  0
 19 21  1  0
 21 22  1  0
 21 23  1  0
 23 24  1  0
 12 25  1  0
 25 26  1  0
 25 27  1  0
 27 28  1  0
 28 29  1  0
 29 30  1  0
 30 31  1  0
 31 32  1  0
 32 33  1  0
 31 34  1  0
 34 35  1  0
 34 36  1  0
 36 37  1  0
 37 38  1  0
 36 39  1  0
 11 40  1  0
 27  9  1  0
 37 29  1  0
 23 14  1  0
  1 41  1  0
  1 42  1  0
  1 43  1  0
  2 44  1  0
  2 45  1  0
  3 46  1  0
  3 47  1  0
  4 48  1  1
  5 49  1  0
  8 50  1  0
  9 51  1  1
 10 52  1  0
 10 53  1  0
 11 54  1  1
 12 55  1  6
 14 56  1  6
 16 57  1  1
 17 58  1  0
 17 59  1  0
 18 60  1  0
 18 61  1  0
 18 62  1  0
 19 63  1  6
 20 64  1  0
 21 65  1  1
 22 66  1  0
 23 67  1  6
 24 68  1  0
 25 69  1  1
 26 70  1  0
 27 71  1  6
 29 72  1  6
 31 73  1  1
 32 74  1  0
 32 75  1  0
 33 76  1  0
 34 77  1  6
 35 78  1  0
 36 79  1  6
 37 80  1  1
 38 81  1  0
 39 82  1  0
 39 83  1  0
 39 84  1  0
 40 85  1  0
 40 86  1  0
 40 87  1  0
M  CHG  4   1   1  18   1  39   1  40   1
M  END
$$$$
tar005
     RDKit          3D

 83 85  0  0  0  0  0  0  0  0999 V2000
    6.0609    3.5451   -6.0748 N   0  0  0  0  0  4  0  0  0  0  0  0
    6.3491    2.9295   -4.7896 C   0  0  0  0  0  0  0  0  0  0  0  0
    5.0865    2.8969   -3.9725 C   0  0  0  0  0  0  0  0  0  0  0  0
    5.3722    2.2643   -2.6425 C   0  0  2  0  0  0  0  0  0  0  0  0
    5.8380    0.9718   -2.7261 O   0  0  0  0  0  0  0  0  0  0  0  0
    4.1728    2.3980   -1.7959 C   0  0  0  0  0  0  0  0  0  0  0  0
    3.6247    3.5044   -1.6356 O   0  0  0  0  0  0  0  0  0  0  0  0
    3.6276    1.2765   -1.1543 N   0  0  0  0  0  0  0  0  0  0  0  0
    2.4503    1.3280   -0.3071 C   0  0  2  0  0  0  0  0  0  0  0  0
    2.8614    0.9234    1.0686 C   0  0  0  0  0  0  0  0  0  0  0  0
    1.7012    0.5458    1.9697 C   0  0  1  0  0  0  0  0  0  0  0  0
    0.9328   -0.5203    1.2328 C   0  0  1  0  0  0  0  0  0  0  0  0
    0.0436   -1.2306    1.8558 O   0  0  0  0  0  0  0  0  0  0  0  0
    0.0414   -2.5626    2.0179 C   0  0  1  0  0  0  0  0  0  0  0  0
    0.3478   -2.7167    3.3764 O   0  0  0  0  0  0  0  0  0  0  0  0
    0.0277   -3.8689    3.9850 C   0  0  2  0  0  0  0  0  0  0  0  0
    1.0662   -4.9804    3.7809 C   0  0  0  0  0  0  0  0  0  0  0  0
    0.6813   -6.1877    4.4472 N   0  0  0  0  0  4  0  0  0  0  0  0
   -1.3738   -4.3647    3.8739 C   0  0  1  0  0  0  0  0  0  0  0  0
   -2.1143   -4.2863    5.0326 O   0  0  0  0  0  0  0  0  0  0  0  0
   -2.0838   -3.5122    2.8253 C   0  0  2  0  0  0  0  0  0  0  0  0
   -3.1712   -4.2159    2.3254 O   0  0  0  0  0  0  0  0  0  0  0  0
   -1.0742   -3.4168    1.6691 C   0  0  1  0  0  0  0  0  0  0  0  0
   -1.8226   -3.2126    0.4862 N   0  0  0  0  0  4  0  0  0  0  0  0
    0.3070    0.2323    0.0857 C   0  0  2  0  0  0  0  0  0  0  0  0
   -0.8553   -0.2677   -0.4060 O   0  0  0  0  0  0  0  0  0  0  0  0
   -1.9259    0.6167   -0.3692 C   0  0  2  0  0  0  0  0  0  0  0  0
   -2.9801    0.0834    0.3083 O   0  0  0  0  0  0  0  0  0  0  0  0
   -4.1362    0.3961   -0.3958 C   0  0  2  0  0  0  0  0  0  0  0  0
   -5.2497   -0.5891   -0.1104 C   0  0  0  0  0  0  0  0  0  0  0  0
   -5.5376   -0.5637    1.2655 O   0  0  0  0  0  0  0  0  0  0  0  0
   -3.7710    0.4869   -1.8339 C   0  0  2  0  0  0  0  0  0  0  0  0
   -3.9450   -0.7469   -2.4893 O   0  0  0  0  0  0  0  0  0  0  0  0
   -2.3212    0.8887   -1.7966 C   0  0  1  0  0  0  0  0  0  0  0  0
   -2.1364    2.2242   -2.1450 O   0  0  0  0  0  0  0  0  0  0  0  0
    1.3986    0.4724   -0.9403 C   0  0  0  0  0  0  0  0  0  0  0  0
    0.8129    1.1579   -2.0060 O   0  0  0  0  0  0  0  0  0  0  0  0
    2.2254    0.1554    3.2293 N   0  0  0  0  0  4  0  0  0  0  0  0
    6.6556    3.2040   -6.8386 H   0  0  0  0  0  0  0  0  0  0  0  0
    6.1855    4.5921   -5.9760 H   0  0  0  0  0  0  0  0  0  0  0  0
    5.0394    3.4120   -6.2980 H   0  0  0  0  0  0  0  0  0  0  0  0
    6.7114    1.8959   -4.9789 H   0  0  0  0  0  0  0  0  0  0  0  0
    7.0763    3.5647   -4.2703 H   0  0  0  0  0  0  0  0  0  0  0  0
    4.7828    3.9523   -3.7686 H   0  0  0  0  0  0  0  0  0  0  0  0
    4.2740    2.3792   -4.4872 H   0  0  0  0  0  0  0  0  0  0  0  0
    6.1798    2.8520   -2.1255 H   0  0  0  0  0  0  0  0  0  0  0  0
    5.2138    0.3334   -3.1221 H   0  0  0  0  0  0  0  0  0  0  0  0
    4.0665    0.3373   -1.2708 H   0  0  0  0  0  0  0  0  0  0  0  0
    2.0985    2.3944   -0.3343 H   0  0  0  0  0  0  0  0  0  0  0  0
    3.3694    1.7853    1.5542 H   0  0  0  0  0  0  0  0  0  0  0  0
    3.5758    0.0886    1.0565 H   0  0  0  0  0  0  0  0  0  0  0  0
    1.0257    1.4151    2.0959 H   0  0  0  0  0  0  0  0  0  0  0  0
    1.7251   -1.1798    0.7761 H   0  0  0  0  0  0  0  0  0  0  0  0
    0.9731   -2.9540    1.4998 H   0  0  0  0  0  0  0  0  0  0  0  0
    0.1543   -3.6408    5.0957 H   0  0  0  0  0  0  0  0  0  0  0  0
    1.3288   -5.1195    2.7131 H   0  0  0  0  0  0  0  0  0  0  0  0
    2.0348   -4.6456    4.2608 H   0  0  0  0  0  0  0  0  0  0  0  0
    0.0318   -5.9373    5.2252 H   0  0  0  0  0  0  0  0  0  0  0  0
    0.2797   -6.8536    3.7730 H   0  0  0  0  0  0  0  0  0  0  0  0
    1.5091   -6.6572    4.8865 H   0  0  0  0  0  0  0  0  0  0  0  0
   -1.4488   -5.4092    3.5086 H   0  0  0  0  0  0  0  0  0  0  0  0
   -2.8628   -4.9459    5.0032 H   0  0  0  0  0  0  0  0  0  0  0  0
   -2.3266   -2.5103    3.1890 H   0  0  0  0  0  0  0  0  0  0  0  0
   -4.0361   -3.8508    2.6380 H   0  0  0  0  0  0  0  0  0  0  0  0
   -0.6771   -4.4793    1.5844 H   0  0  0  0  0  0  0  0  0  0  0  0
   -2.6452   -2.5971    0.6799 H   0  0  0  0  0  0  0  0  0  0  0  0
   -2.2960   -4.1327    0.2116 H   0  0  0  0  0  0  0  0  0  0  0  0
   -1.2822   -2.9687   -0.3631 H   0  0  0  0  0  0  0  0  0  0  0  0
    0.0419    1.2931    0.4129 H   0  0  0  0  0  0  0  0  0  0  0  0
   -1.6101    1.5949    0.0811 H   0  0  0  0  0  0  0  0  0  0  0  0
   -4.4836    1.3885   -0.0439 H   0  0  0  0  0  0  0  0  0  0  0  0
   -5.0040   -1.6202   -0.4120 H   0  0  0  0  0  0  0  0  0  0  0  0
   -6.1882   -0.3087   -0.6248 H   0  0  0  0  0  0  0  0  0  0  0  0
   -5.7166    0.3788    1.5406 H   0  0  0  0  0  0  0  0  0  0  0  0
   -4.3858    1.2186   -2.4027 H   0  0  0  0  0  0  0  0  0  0  0  0
   -3.5975   -1.4474   -1.8806 H   0  0  0  0  0  0  0  0  0  0  0  0
   -1.7871    0.2077   -2.5115 H   0  0  0  0  0  0  0  0  0  0  0  0
   -2.5792    2.3578   -3.0183 H   0  0  0  0  0  0  0  0  0  0  0  0
    1.8227   -0.4948   -1.2197 H   0  0  0  0  0  0  0  0  0  0  0  0
    0.8588    2.1423   -1.8120 H   0  0  0  0  0  0  0  0  0  0  0  0
    3.0935   -0.3990    3.2155 H   0  0  0  0  0  0  0  0  0  0  0  0
    1.4957   -0.2688    3.8762 H   0  0  0  0  0  0  0  0  0  0  0  0
    2.4822    1.0553    3.7427 H   0  0  0  0  0  0  0  0  0  0  0  0
  1  2  1  0
  2  3  1  0
  3  4  1  0
  4  5  1  0
  4  6  1  0
  6  7  2  0
  6  8  1  0
  8  9  1  0
  9 10  1  0
 10 11  1  0
 11 12  1  0
 12 13  1  0
 13 14  1  0
 14 15  1  0
 15 16  1  0
 16 17  1  0
 17 18  1  0
 16 19  1  0
 19 20  1  0
 19 21  1  0
 21 22  1  0
 21 23  1  0
 23 24  1  0
 12 25  1  0
 25 26  1  0
 26 27  1  0
 27 28  1  0
 28 29  1  0
 29 30  1  0
 30 31  1  0
 29 32  1  0
 32 33  1  0
 32 34  1  0
 34 35  1  0
 25 36  1  0
 36 37  1  0
 11 38  1  0
 36  9  1  0
 23 14  1  0
 34 27  1  0
  1 39  1  0
  1 40  1  0
  1 41  1  0
  2 42  1  0
  2 43  1  0
  3 44  1  0
  3 45  1  0
  4 46  1  1
  5 47  1  0
  8 48  1  0
  9 49  1  1
 10 50  1  0
 10 51  1  0
 11 52  1  1
 12 53  1  6
 14 54  1  6
 16 55  1  1
 17 56  1  0
 17 57  1  0
 18 58  1  0
 18 59  1  0
 18 60  1  0
 19 61  1  6
 20 62  1  0
 21 63  1  1
 22 64  1  0
 23 65  1  6
 24 66  1  0
 24 67  1  0
 24 68  1  0
 25 69  1  1
 27 70  1  1
 29 71  1  1
 30 72  1  0
 30 73  1  0
 31 74  1  0
 32 75  1  6
 33 76  1  0
 34 77  1  6
 35 78  1  0
 36 79  1  0
 37 80  1  0
 38 81  1  0
 38 82  1  0
 38 83  1  0
M  CHG  4   1   1  18   1  24   1  38   1
M  END
$$$$
tar006
     RDKit          3D

 29 29  0  0  0  0  0  0  0  0999 V2000
    1.8194    2.5745   -0.8827 C   0  0  0  0  0  0  0  0  0  0  0  0
    2.2482    1.5759    0.0790 N   0  0  0  0  0  0  0  0  0  0  0  0
    3.5807    1.6702    0.6071 C   0  0  0  0  0  0  0  0  0  0  0  0
    1.3249    0.5628    0.4424 C   0  0  0  0  0  0  0  0  0  0  0  0
    0.0815    0.5418   -0.1020 N   0  0  0  0  0  0  0  0  0  0  0  0
   -0.8607   -0.3657    0.1716 C   0  0  0  0  0  0  0  0  0  0  0  0
   -2.1456   -0.3167   -0.4454 N   0  0  0  0  0  0  0  0  0  0  0  0
   -0.5517   -1.3526    1.0704 C   0  0  0  0  0  0  0  0  0  0  0  0
    0.6810   -1.3669    1.6371 N   0  0  0  0  0  0  0  0  0  0  0  0
    1.6203   -0.4359    1.3441 C   0  0  0  0  0  0  0  0  0  0  0  0
    3.1802   -0.5440    2.1305 Cl  0  0  0  0  0  0  0  0  0  0  0  0
   -1.5251   -2.3764    1.4194 C   0  0  0  0  0  0  0  0  0  0  0  0
   -2.6576   -2.3039    0.8530 O   0  0  0  0  0  0  0  0  0  0  0  0
   -1.2291   -3.4110    2.3491 N   0  0  0  0  0  0  0  0  0  0  0  0
   -2.1931   -3.9808    2.9604 C   0  0  0  0  0  0  0  0  0  0  0  0
   -1.9220   -5.0120    3.8891 N   0  0  0  0  0  0  0  0  0  0  0  0
   -3.5238   -3.5839    2.7111 N   0  0  0  0  0  0  0  0  0  0  0  0
    0.8570    3.0440   -0.5984 H   0  0  0  0  0  0  0  0  0  0  0  0
    1.6428    2.0157   -1.8410 H   0  0  0  0  0  0  0  0  0  0  0  0
    2.6110    3.3215   -1.0829 H   0  0  0  0  0  0  0  0  0  0  0  0
    3.6349    1.8678    1.6968 H   0  0  0  0  0  0  0  0  0  0  0  0
    4.1928    0.8072    0.2951 H   0  0  0  0  0  0  0  0  0  0  0  0
    4.1228    2.5677    0.1590 H   0  0  0  0  0  0  0  0  0  0  0  0
   -2.8514    0.4081   -0.1891 H   0  0  0  0  0  0  0  0  0  0  0  0
   -2.4112   -1.0048   -1.1682 H   0  0  0  0  0  0  0  0  0  0  0  0
   -2.6158   -5.3194    4.6156 H   0  0  0  0  0  0  0  0  0  0  0  0
   -1.0053   -5.5387    3.9119 H   0  0  0  0  0  0  0  0  0  0  0  0
   -4.0669   -2.9491    3.3560 H   0  0  0  0  0  0  0  0  0  0  0  0
   -4.0738   -3.8935    1.8603 H   0  0  0  0  0  0  0  0  0  0  0  0
  1  2  1  0
  2  3  1  0
  2  4  1  0
  4  5  2  0
  5  6  1  0
  6  7  1  0
  6  8  2  0
  8  9  1  0
  9 10  2  0
 10 11  1  0
  8 12  1  0
 12 13  2  0
 12 14  1  0
 14 15  2  3
 15 16  1  0
 15 17  1  0
 10  4  1  0
  1 18  1  0
  1 19  1  0
  1 20  1  0
  3 21  1  0
  3 22  1  0
  3 23  1  0
  7 24  1  0
  7 25  1  0
 16 26  1  0
 16 27  1  0
 17 28  1  0
 17 29  1  0
M  END
$$$$
tar007
     RDKit          3D

 52 53  0  0  0  0  0  0  0  0999 V2000
   -1.9778   -4.8971    3.8740 C   0  0  0  0  0  0  0  0  0  0  0  0
   -2.2215   -3.8846    2.9339 O   0  0  0  0  0  0  0  0  0  0  0  0
   -1.2609   -2.9913    2.5010 C   0  0  0  0  0  0  0  0  0  0  0  0
   -1.5923   -2.0172    1.5645 C   0  0  0  0  0  0  0  0  0  0  0  0
   -0.6428   -1.1301    1.1335 C   0  0  0  0  0  0  0  0  0  0  0  0
    0.6398   -1.2379    1.6567 C   0  0  0  0  0  0  0  0  0  0  0  0
    0.9533   -2.2093    2.5847 C   0  0  0  0  0  0  0  0  0  0  0  0
    0.0077   -3.0978    3.0183 C   0  0  0  0  0  0  0  0  0  0  0  0
    1.5829   -0.3472    1.2205 O   0  0  0  0  0  0  0  0  0  0  0  0
    2.9217   -0.2774    1.6140 C   0  0  0  0  0  0  0  0  0  0  0  0
    3.5378    0.8896    0.8332 C   0  0  0  0  0  0  0  0  0  0  0  0
    2.8035    2.1648    1.1682 C   0  0  0  0  0  0  0  0  0  0  0  0
    2.8655    2.4962    2.5598 N   0  0  0  0  0  4  0  0  0  0  0  0
   -0.9320   -0.0935    0.1560 C   0  0  0  0  0  0  0  0  0  0  0  0
   -2.2928   -0.0507   -0.3292 N   0  0  0  0  0  4  0  0  0  0  0  0
   -3.1007    0.7719    0.5422 C   0  0  0  0  0  0  0  0  0  0  0  0
   -4.2974    1.3923   -0.0876 C   0  0  0  0  0  0  0  0  0  0  0  0
   -4.5521    0.9958   -1.4350 N   0  0  0  0  0  0  0  0  0  0  0  0
   -3.5817    0.3318   -2.2837 C   0  0  0  0  0  0  0  0  0  0  0  0
   -2.2318    0.6520   -1.6263 C   0  0  0  0  0  0  0  0  0  0  0  0
   -5.8343    1.2657   -1.9861 C   0  0  0  0  0  0  0  0  0  0  0  0
   -6.2331    2.4984   -1.9485 N   0  0  0  0  0  0  0  0  0  0  0  0
   -6.6881    0.3089   -2.5602 N   0  0  0  0  0  0  0  0  0  0  0  0
   -1.7179   -4.4898    4.8744 H   0  0  0  0  0  0  0  0  0  0  0  0
   -1.1806   -5.5585    3.4816 H   0  0  0  0  0  0  0  0  0  0  0  0
   -2.9196   -5.4877    4.0087 H   0  0  0  0  0  0  0  0  0  0  0  0
   -2.6166   -2.0271    1.2263 H   0  0  0  0  0  0  0  0  0  0  0  0
    1.9515   -2.2683    2.9708 H   0  0  0  0  0  0  0  0  0  0  0  0
    0.2488   -3.8707    3.7547 H   0  0  0  0  0  0  0  0  0  0  0  0
    3.4898   -1.2082    1.4143 H   0  0  0  0  0  0  0  0  0  0  0  0
    3.0323   -0.0862    2.6997 H   0  0  0  0  0  0  0  0  0  0  0  0
    3.4598    0.6755   -0.2485 H   0  0  0  0  0  0  0  0  0  0  0  0
    4.5938    0.9710    1.1417 H   0  0  0  0  0  0  0  0  0  0  0  0
    1.7317    2.0096    0.9151 H   0  0  0  0  0  0  0  0  0  0  0  0
    3.1861    2.9828    0.5240 H   0  0  0  0  0  0  0  0  0  0  0  0
    3.4484    1.8533    3.1346 H   0  0  0  0  0  0  0  0  0  0  0  0
    3.2222    3.4875    2.6337 H   0  0  0  0  0  0  0  0  0  0  0  0
    1.9191    2.5289    3.0140 H   0  0  0  0  0  0  0  0  0  0  0  0
   -0.7071    0.9359    0.5567 H   0  0  0  0  0  0  0  0  0  0  0  0
   -0.2663   -0.1666   -0.7584 H   0  0  0  0  0  0  0  0  0  0  0  0
   -2.7226   -0.9843   -0.4847 H   0  0  0  0  0  0  0  0  0  0  0  0
   -3.3863    0.2118    1.4538 H   0  0  0  0  0  0  0  0  0  0  0  0
   -2.4160    1.5853    0.9247 H   0  0  0  0  0  0  0  0  0  0  0  0
   -4.2228    2.5152   -0.0778 H   0  0  0  0  0  0  0  0  0  0  0  0
   -5.2206    1.1637    0.5163 H   0  0  0  0  0  0  0  0  0  0  0  0
   -3.5498    0.7031   -3.3054 H   0  0  0  0  0  0  0  0  0  0  0  0
   -3.6915   -0.7751   -2.2221 H   0  0  0  0  0  0  0  0  0  0  0  0
   -2.2162    1.7382   -1.3667 H   0  0  0  0  0  0  0  0  0  0  0  0
   -1.3783    0.3426   -2.2261 H   0  0  0  0  0  0  0  0  0  0  0  0
   -7.1689    2.7951   -2.3324 H   0  0  0  0  0  0  0  0  0  0  0  0
   -6.5115   -0.0842   -3.5181 H   0  0  0  0  0  0  0  0  0  0  0  0
   -7.5249   -0.0021   -1.9817 H   0  0  0  0  0  0  0  0  0  0  0  0
  1  2  1  0
  2  3  1  0
  3  4  2  0
  4  5  1  0
  5  6  2  0
  6  7  1  0
  7  8  2  0
  6  9  1  0
  9 10  1  0
 10 11  1  0
 11 12  1  0
 12 13  1  0
  5 14  1  0
 14 15  1  0
 15 16  1  0
 16 17  1  0
 17 18  1  0
 18 19  1  0
 19 20  1  0
 18 21  1  0
 21 22  2  3
 21 23  1  0
  8  3  1  0
 20 15  1  0
  1 24  1  0
  1 25  1  0
  1 26  1  0
  4 27  1  0
  7 28  1  0
  8 29  1  0
 10 30  1  0
 10 31  1  0
 11 32  1  0
 11 33  1  0
 12 34  1  0
 12 35  1  0
 13 36  1  0
 13 37  1  0
 13 38  1  0
 14 39  1  0
 14 40  1  0
 15 41  1  0
 16 42  1  0
 16 43  1  0
 17 44  1  0
 17 45  1  0
 19 46  1  0
 19 47  1  0
 20 48  1  0
 20 49  1  0
 22 50  1  0
 23 51  1  0
 23 52  1  0
M  CHG  2  13   1  15   1
M  END
$$$$
tar008
     RDKit          3D

 56 56  0  0  0  0  0  0  0  0999 V2000
   -3.2827   -1.1539    0.1359 C   0  0  0  0  0  0  0  0  0  0  0  0
   -2.3539   -0.2298   -0.3903 O   0  0  0  0  0  0  0  0  0  0  0  0
   -1.0507   -0.1777    0.0557 C   0  0  0  0  0  0  0  0  0  0  0  0
   -0.6223   -1.0476    1.0459 C   0  0  0  0  0  0  0  0  0  0  0  0
    0.6601   -1.0149    1.5006 C   0  0  0  0  0  0  0  0  0  0  0  0
    1.5556   -0.0796    0.9501 C   0  0  0  0  0  0  0  0  0  0  0  0
    1.1178    0.7823   -0.0346 C   0  0  0  0  0  0  0  0  0  0  0  0
   -0.1832    0.7357   -0.4835 C   0  0  0  0  0  0  0  0  0  0  0  0
    2.8024   -0.0788    1.4242 O   0  0  0  0  0  0  0  0  0  0  0  0
    4.0128    0.4733    1.3419 C   0  0  0  0  0  0  0  0  0  0  0  0
    4.8287    0.3768    0.1012 C   0  0  0  0  0  0  0  0  0  0  0  0
    4.2720    0.9401   -1.0901 N   0  0  0  0  0  4  0  0  0  0  0  0
    4.5122    2.1497   -1.4372 C   0  0  0  0  0  0  0  0  0  0  0  0
    3.9207    2.6517   -2.6447 N   0  0  0  0  0  0  0  0  0  0  0  0
    5.3473    3.0239   -0.6750 N   0  0  0  0  0  0  0  0  0  0  0  0
    1.1464   -1.9424    2.5740 C   0  0  0  0  0  0  0  0  0  0  0  0
    0.0201   -2.8188    2.9770 N   0  0  0  0  0  0  0  0  0  0  0  0
    0.4064   -3.7097    3.9963 C   0  0  0  0  0  0  0  0  0  0  0  0
   -0.4863   -4.4799    4.8148 C   0  0  0  0  0  0  0  0  0  0  0  0
   -1.4197   -5.4112    4.1409 C   0  0  0  0  0  0  0  0  0  0  0  0
   -2.4894   -4.7877    3.3023 C   0  0  0  0  0  0  0  0  0  0  0  0
   -3.2630   -3.9283    4.2098 N   0  0  0  0  0  4  0  0  0  0  0  0
   -4.4735   -4.2227    4.5044 C   0  0  0  0  0  0  0  0  0  0  0  0
   -5.0451   -5.3905    3.9368 N   0  0  0  0  0  0  0  0  0  0  0  0
   -5.2719   -3.4344    5.3814 N   0  0  0  0  0  0  0  0  0  0  0  0
   -3.2263   -1.0825    1.2583 H   0  0  0  0  0  0  0  0  0  0  0  0
   -4.3160   -0.9457   -0.2009 H   0  0  0  0  0  0  0  0  0  0  0  0
   -3.0573   -2.1899   -0.2209 H   0  0  0  0  0  0  0  0  0  0  0  0
   -1.3208   -1.7685    1.4729 H   0  0  0  0  0  0  0  0  0  0  0  0
    1.7726    1.5439   -0.4834 H   0  0  0  0  0  0  0  0  0  0  0  0
   -0.5014    1.4187   -1.2557 H   0  0  0  0  0  0  0  0  0  0  0  0
    3.9452    1.5922    1.5836 H   0  0  0  0  0  0  0  0  0  0  0  0
    4.6598    0.0260    2.1789 H   0  0  0  0  0  0  0  0  0  0  0  0
    5.7893    0.9375    0.3147 H   0  0  0  0  0  0  0  0  0  0  0  0
    5.1791   -0.6645   -0.1069 H   0  0  0  0  0  0  0  0  0  0  0  0
    3.6386    0.3767   -1.7319 H   0  0  0  0  0  0  0  0  0  0  0  0
    4.4191    3.3323   -3.2751 H   0  0  0  0  0  0  0  0  0  0  0  0
    2.9630    2.3088   -2.8754 H   0  0  0  0  0  0  0  0  0  0  0  0
    4.9972    3.9470   -0.3084 H   0  0  0  0  0  0  0  0  0  0  0  0
    6.3196    2.7333   -0.4857 H   0  0  0  0  0  0  0  0  0  0  0  0
    1.8939   -2.6144    2.1319 H   0  0  0  0  0  0  0  0  0  0  0  0
    1.5625   -1.4506    3.4388 H   0  0  0  0  0  0  0  0  0  0  0  0
   -0.2369   -3.3466    2.0690 H   0  0  0  0  0  0  0  0  0  0  0  0
    1.1168   -3.1365    4.6989 H   0  0  0  0  0  0  0  0  0  0  0  0
    1.1563   -4.4420    3.5211 H   0  0  0  0  0  0  0  0  0  0  0  0
   -1.1528   -3.8484    5.4945 H   0  0  0  0  0  0  0  0  0  0  0  0
    0.1338   -5.1381    5.5184 H   0  0  0  0  0  0  0  0  0  0  0  0
   -1.9519   -6.0866    4.8668 H   0  0  0  0  0  0  0  0  0  0  0  0
   -0.8322   -6.1501    3.4832 H   0  0  0  0  0  0  0  0  0  0  0  0
   -3.1696   -5.6284    2.9593 H   0  0  0  0  0  0  0  0  0  0  0  0
   -2.1364   -4.1981    2.4777 H   0  0  0  0  0  0  0  0  0  0  0  0
   -2.8047   -3.0963    4.5914 H   0  0  0  0  0  0  0  0  0  0  0  0
   -5.4490   -5.3704    2.9544 H   0  0  0  0  0  0  0  0  0  0  0  0
   -5.0895   -6.2940    4.4551 H   0  0  0  0  0  0  0  0  0  0  0  0
   -5.6277   -2.4935    5.1379 H   0  0  0  0  0  0  0  0  0  0  0  0
   -5.5244   -3.8159    6.3380 H   0  0  0  0  0  0  0  0  0  0  0  0
  1  2  1  0
  2  3  1  0
  3  4  2  0
  4  5  1  0
  5  6  2  0
  6  7  1  0
  7  8  2  0
  6  9  1  0
  9 10  1  0
 10 11  1  0
 11 12  1  0
 12 13  2  3
 13 14  1  0
 13 15  1  0
  5 16  1  0
 16 17  1  0
 17 18  1  0
 18 19  1  0
 19 20  1  0
 20 21  1  0
 21 22  1  0
 22 23  2  3
 23 24  1  0
 23 25  1  0
  8  3  1  0
  1 26  1  0
  1 27  1  0
  1 28  1  0
  4 29  1  0
  7 30  1  0
  8 31  1  0
 10 32  1  0
 10 33  1  0
 11 34  1  0
 11 35  1  0
 12 36  1  0
 14 37  1  0
 14 38  1  0
 15 39  1  0
 15 40  1  0
 16 41  1  0
 16 42  1  0
 17 43  1  0
 18 44  1  0
 18 45  1  0
 19 46  1  0
 19 47  1  0
 20 48  1  0
 20 49  1  0
 21 50  1  0
 21 51  1  0
 22 52  1  0
 24 53  1  0
 24 54  1  0
 25 55  1  0
 25 56  1  0
M  CHG  2  12   1  22   1
M  END
$$$$
tar009
     RDKit          3D

 63 66  0  0  0  0  0  0  0  0999 V2000
   -2.2213    2.3745   -5.5792 C   0  0  0  0  0  0  0  0  0  0  0  0
   -1.6565    1.8944   -4.2290 C   0  0  0  0  0  0  0  0  0  0  0  0
   -2.1394    0.5581   -4.0762 N   0  0  0  0  0  0  0  0  0  0  0  0
   -3.5040    0.3922   -4.5214 C   0  0  0  0  0  0  0  0  0  0  0  0
   -4.2550    1.7187   -4.4883 C   0  0  0  0  0  0  0  0  0  0  0  0
   -3.6442    2.6369   -5.4342 N   0  0  0  0  0  0  0  0  0  0  0  0
   -1.8565   -0.0858   -2.8414 C   0  0  0  0  0  0  0  0  0  0  0  0
   -2.5652    0.4487   -1.6282 C   0  0  0  0  0  0  0  0  0  0  0  0
   -2.1894   -0.3451   -0.4803 N   0  0  0  0  0  0  0  0  0  0  0  0
   -0.8374   -0.1726   -0.0547 C   0  0  0  0  0  0  0  0  0  0  0  0
   -0.5278   -1.1156    1.0662 C   0  0  0  0  0  0  0  0  0  0  0  0
    0.7106   -1.1026    1.6592 C   0  0  0  0  0  0  0  0  0  0  0  0
    1.0042   -2.0211    2.6771 C   0  0  0  0  0  0  0  0  0  0  0  0
    0.0451   -2.9242    3.0684 C   0  0  0  0  0  0  0  0  0  0  0  0
   -1.2043   -2.9535    2.4866 C   0  0  0  0  0  0  0  0  0  0  0  0
   -1.4619   -2.0396    1.4905 C   0  0  0  0  0  0  0  0  0  0  0  0
   -2.1882   -3.9519    2.9167 C   0  0  0  0  0  0  0  0  0  0  0  0
   -1.7669   -5.1995    3.3439 C   0  0  0  0  0  0  0  0  0  0  0  0
   -2.6276   -6.1851    3.7518 C   0  0  0  0  0  0  0  0  0  0  0  0
   -3.9802   -5.9599    3.7504 C   0  0  0  0  0  0  0  0  0  0  0  0
   -4.4451   -4.7202    3.3286 C   0  0  0  0  0  0  0  0  0  0  0  0
   -3.5490   -3.7344    2.9183 C   0  0  0  0  0  0  0  0  0  0  0  0
   -4.6025   -7.0691    4.1883 N   0  0  0  0  0  0  0  0  0  0  0  0
   -3.6586   -8.0114    4.4724 C   0  0  0  0  0  0  0  0  0  0  0  0
   -2.4364   -7.4852    4.2099 C   0  0  0  0  0  0  0  0  0  0  0  0
    1.6450   -0.1741    1.2295 O   0  0  0  0  0  0  0  0  0  0  0  0
    2.9181   -0.1235    1.8111 C   0  0  0  0  0  0  0  0  0  0  0  0
    3.7899    0.9499    1.1999 C   0  0  0  0  0  0  0  0  0  0  0  0
    3.1787    2.3202    1.3597 C   0  0  0  0  0  0  0  0  0  0  0  0
    4.1216    3.2505    0.7235 N   0  0  0  0  0  0  0  0  0  0  0  0
   -2.1181    1.5438   -6.2961 H   0  0  0  0  0  0  0  0  0  0  0  0
   -1.7427    3.3046   -5.9107 H   0  0  0  0  0  0  0  0  0  0  0  0
   -1.9806    2.6241   -3.4951 H   0  0  0  0  0  0  0  0  0  0  0  0
   -0.5502    1.8553   -4.3813 H   0  0  0  0  0  0  0  0  0  0  0  0
   -4.0422   -0.3717   -3.9242 H   0  0  0  0  0  0  0  0  0  0  0  0
   -3.4793    0.0745   -5.5803 H   0  0  0  0  0  0  0  0  0  0  0  0
   -4.1562    2.1105   -3.4537 H   0  0  0  0  0  0  0  0  0  0  0  0
   -5.3077    1.5921   -4.7266 H   0  0  0  0  0  0  0  0  0  0  0  0
   -3.8240    3.6312   -5.1418 H   0  0  0  0  0  0  0  0  0  0  0  0
   -2.0422   -1.1747   -2.8891 H   0  0  0  0  0  0  0  0  0  0  0  0
   -0.7584    0.0419   -2.6715 H   0  0  0  0  0  0  0  0  0  0  0  0
   -2.2437    1.4996   -1.4149 H   0  0  0  0  0  0  0  0  0  0  0  0
   -3.6625    0.3991   -1.6989 H   0  0  0  0  0  0  0  0  0  0  0  0
   -2.8833   -0.2076    0.2981 H   0  0  0  0  0  0  0  0  0  0  0  0
   -0.6875    0.8704    0.2729 H   0  0  0  0  0  0  0  0  0  0  0  0
   -0.1176   -0.4228   -0.8439 H   0  0  0  0  0  0  0  0  0  0  0  0
    1.9849   -1.9943    3.1280 H   0  0  0  0  0  0  0  0  0  0  0  0
    0.2684   -3.6272    3.8447 H   0  0  0  0  0  0  0  0  0  0  0  0
   -2.4259   -2.0374    1.0197 H   0  0  0  0  0  0  0  0  0  0  0  0
   -0.7146   -5.4286    3.3617 H   0  0  0  0  0  0  0  0  0  0  0  0
   -5.5076   -4.5682    3.3368 H   0  0  0  0  0  0  0  0  0  0  0  0
   -3.9302   -2.7600    2.5882 H   0  0  0  0  0  0  0  0  0  0  0  0
   -5.6480   -7.2127    4.3007 H   0  0  0  0  0  0  0  0  0  0  0  0
   -3.8276   -9.0170    4.8454 H   0  0  0  0  0  0  0  0  0  0  0  0
   -1.4383   -7.9318    4.3130 H   0  0  0  0  0  0  0  0  0  0  0  0
    2.8014    0.1233    2.8895 H   0  0  0  0  0  0  0  0  0  0  0  0
    3.3899   -1.1369    1.6508 H   0  0  0  0  0  0  0  0  0  0  0  0
    4.0624    0.7090    0.1641 H   0  0  0  0  0  0  0  0  0  0  0  0
    4.7483    0.9451    1.7862 H   0  0  0  0  0  0  0  0  0  0  0  0
    3.1359    2.5958    2.4327 H   0  0  0  0  0  0  0  0  0  0  0  0
    2.2342    2.4350    0.8219 H   0  0  0  0  0  0  0  0  0  0  0  0
    3.5775    4.1675    0.6896 H   0  0  0  0  0  0  0  0  0  0  0  0
    4.2497    2.9629   -0.2638 H   0  0  0  0  0  0  0  0  0  0  0  0
  1  2  1  0
  2  3  1  0
  3  4  1  0
  4  5  1  0
  5  6  1  0
  3  7  1  0
  7  8  1  0
  8  9  1  0
  9 10  1  0
 10 11  1  0
 11 12  2  0
 12 13  1  0
 13 14  2  0
 14 15  1  0
 15 16  2  0
 15 17  1  0
 17 18  2  0
 18 19  1  0
 19 20  2  0
 20 21  1  0
 21 22  2  0
 20 23  1  0
 23 24  1  0
 24 25  2  0
 12 26  1  0
 26 27  1  0
 27 28  1  0
 28 29  1  0
 29 30  1  0
  6  1  1  0
 16 11  1  0
 22 17  1  0
 25 19  1  0
  1 31  1  0
  1 32  1  0
  2 33  1  0
  2 34  1  0
  4 35  1  0
  4 36  1  0
  5 37  1  0
  5 38  1  0
  6 39  1  0
  7 40  1  0
  7 41  1  0
  8 42  1  0
  8 43  1  0
  9 44  1  0
 10 45  1  0
 10 46  1  0
 13 47  1  0
 14 48  1  0
 16 49  1  0
 18 50  1  0
 21 51  1  0
 22 52  1  0
 23 53  1  0
 24 54  1  0
 25 55  1  0
 27 56  1  0
 27 57  1  0
 28 58  1  0
 28 59  1  0
 29 60  1  0
 29 61  1  0
 30 62  1  0
 30 63  1  0
M  END
$$$$
tar010
     RDKit          3D

 88 91  0  0  0  0  0  0  0  0999 V2000
    3.8480   -0.0425   -0.0040 N   0  0  0  0  0  0  0  0  0  0  0  0
    4.0777   -1.2877    0.7478 C   0  0  0  0  0  0  0  0  0  0  0  0
    4.4478   -0.8804    2.1621 C   0  0  0  0  0  0  0  0  0  0  0  0
    3.4422   -0.1684    2.7743 O   0  0  0  0  0  0  0  0  0  0  0  0
    2.8354   -0.9242    3.7513 C   0  0  0  0  0  0  0  0  0  0  0  0
    2.2381   -2.0634    3.3398 O   0  0  0  0  0  0  0  0  0  0  0  0
    0.8836   -2.2062    3.5183 C   0  0  0  0  0  0  0  0  0  0  0  0
    0.5751   -3.4890    4.3069 C   0  0  0  0  0  0  0  0  0  0  0  0
    1.7690   -4.2926    4.4530 N   0  0  0  0  0  0  0  0  0  0  0  0
   -0.5286   -4.2285    3.6174 C   0  0  0  0  0  0  0  0  0  0  0  0
   -0.1605   -4.7441    2.2473 C   0  0  0  0  0  0  0  0  0  0  0  0
    0.5496   -5.9902    2.3338 N   0  0  0  0  0  0  0  0  0  0  0  0
    0.6775   -3.6819    1.5540 C   0  0  0  0  0  0  0  0  0  0  0  0
    1.9955   -4.0830    1.7528 O   0  0  0  0  0  0  0  0  0  0  0  0
    0.2928   -2.3796    2.1177 C   0  0  0  0  0  0  0  0  0  0  0  0
    0.3736   -1.2285    1.3749 O   0  0  0  0  0  0  0  0  0  0  0  0
   -0.7986   -0.6887    1.0322 C   0  0  0  0  0  0  0  0  0  0  0  0
   -1.0685    0.6249    1.5616 O   0  0  0  0  0  0  0  0  0  0  0  0
   -2.4008    0.7859    1.0252 C   0  0  0  0  0  0  0  0  0  0  0  0
   -2.9137    2.1584    1.2013 C   0  0  0  0  0  0  0  0  0  0  0  0
   -4.1779    2.2785    0.6976 O   0  0  0  0  0  0  0  0  0  0  0  0
   -2.3505    0.2216   -0.3401 C   0  0  0  0  0  0  0  0  0  0  0  0
   -2.8114    0.8593   -1.3898 O   0  0  0  0  0  0  0  0  0  0  0  0
   -3.6478    0.3830   -2.3089 C   0  0  0  0  0  0  0  0  0  0  0  0
   -2.9266    0.3460   -3.5404 O   0  0  0  0  0  0  0  0  0  0  0  0
   -3.5123   -0.6064   -4.3570 C   0  0  0  0  0  0  0  0  0  0  0  0
   -2.7448   -0.6392   -5.6661 C   0  0  0  0  0  0  0  0  0  0  0  0
   -2.8635    0.7153   -6.2295 N   0  0  0  0  0  0  0  0  0  0  0  0
   -4.9656   -0.3094   -4.5147 C   0  0  0  0  0  0  0  0  0  0  0  0
   -5.2205   -0.2884   -5.9091 O   0  0  0  0  0  0  0  0  0  0  0  0
   -5.4036    1.0121   -3.9733 C   0  0  0  0  0  0  0  0  0  0  0  0
   -5.1004    1.9892   -4.9390 O   0  0  0  0  0  0  0  0  0  0  0  0
   -4.7732    1.3740   -2.6456 C   0  0  0  0  0  0  0  0  0  0  0  0
   -4.1237    2.6754   -2.8211 N   0  0  0  0  0  0  0  0  0  0  0  0
   -0.9134   -0.3145   -0.4138 C   0  0  0  0  0  0  0  0  0  0  0  0
   -0.0062    0.7089   -0.6414 O   0  0  0  0  0  0  0  0  0  0  0  0
    3.7295   -1.0445    4.9770 C   0  0  0  0  0  0  0  0  0  0  0  0
    3.8472    0.3083    5.5197 N   0  0  0  0  0  0  0  0  0  0  0  0
    5.1023   -1.4022    4.4433 C   0  0  0  0  0  0  0  0  0  0  0  0
    5.6190   -2.4344    5.2190 O   0  0  0  0  0  0  0  0  0  0  0  0
    4.9649   -1.9676    3.0181 C   0  0  0  0  0  0  0  0  0  0  0  0
    6.2755   -2.3525    2.6745 O   0  0  0  0  0  0  0  0  0  0  0  0
    3.3052   -0.1737   -0.8616 H   0  0  0  0  0  0  0  0  0  0  0  0
    4.8126    0.3060   -0.2892 H   0  0  0  0  0  0  0  0  0  0  0  0
    4.7613   -1.9715    0.2653 H   0  0  0  0  0  0  0  0  0  0  0  0
    3.0713   -1.7554    0.8142 H   0  0  0  0  0  0  0  0  0  0  0  0
    5.3180   -0.1394    2.0544 H   0  0  0  0  0  0  0  0  0  0  0  0
    1.9879   -0.2615    4.1423 H   0  0  0  0  0  0  0  0  0  0  0  0
    0.3686   -1.3797    4.0229 H   0  0  0  0  0  0  0  0  0  0  0  0
    0.2428   -3.1981    5.3048 H   0  0  0  0  0  0  0  0  0  0  0  0
    1.6265   -5.0530    5.1363 H   0  0  0  0  0  0  0  0  0  0  0  0
    2.6191   -3.7523    4.6504 H   0  0  0  0  0  0  0  0  0  0  0  0
   -1.5029   -3.7130    3.6141 H   0  0  0  0  0  0  0  0  0  0  0  0
   -0.6873   -5.1773    4.2490 H   0  0  0  0  0  0  0  0  0  0  0  0
   -1.0839   -4.9655    1.6496 H   0  0  0  0  0  0  0  0  0  0  0  0
    0.0490   -6.5450    3.0964 H   0  0  0  0  0  0  0  0  0  0  0  0
    0.5645   -6.5278    1.4502 H   0  0  0  0  0  0  0  0  0  0  0  0
    0.4804   -3.7462    0.4614 H   0  0  0  0  0  0  0  0  0  0  0  0
    2.0726   -5.0128    1.4163 H   0  0  0  0  0  0  0  0  0  0  0  0
   -0.8374   -2.4760    2.3002 H   0  0  0  0  0  0  0  0  0  0  0  0
   -1.6975   -1.3141    1.2944 H   0  0  0  0  0  0  0  0  0  0  0  0
   -2.9915    0.1323    1.7447 H   0  0  0  0  0  0  0  0  0  0  0  0
   -3.0211    2.3151    2.3191 H   0  0  0  0  0  0  0  0  0  0  0  0
   -2.2154    2.9645    0.8933 H   0  0  0  0  0  0  0  0  0  0  0  0
   -4.2345    2.8610   -0.0703 H   0  0  0  0  0  0  0  0  0  0  0  0
   -2.9133   -0.7807   -0.3081 H   0  0  0  0  0  0  0  0  0  0  0  0
   -4.0079   -0.6444   -2.1825 H   0  0  0  0  0  0  0  0  0  0  0  0
   -3.4378   -1.6116   -3.8779 H   0  0  0  0  0  0  0  0  0  0  0  0
   -1.6855   -0.8451   -5.4198 H   0  0  0  0  0  0  0  0  0  0  0  0
   -3.1100   -1.4062   -6.3591 H   0  0  0  0  0  0  0  0  0  0  0  0
   -2.7439    0.6566   -7.2581 H   0  0  0  0  0  0  0  0  0  0  0  0
   -2.0490    1.2554   -5.8416 H   0  0  0  0  0  0  0  0  0  0  0  0
   -5.6352   -1.0800   -4.0746 H   0  0  0  0  0  0  0  0  0  0  0  0
   -5.3288   -1.2076   -6.2538 H   0  0  0  0  0  0  0  0  0  0  0  0
   -6.5124    0.9964   -3.8720 H   0  0  0  0  0  0  0  0  0  0  0  0
   -5.8682    2.1612   -5.5442 H   0  0  0  0  0  0  0  0  0  0  0  0
   -5.5580    1.4069   -1.8893 H   0  0  0  0  0  0  0  0  0  0  0  0
   -3.6777    2.7511   -3.7492 H   0  0  0  0  0  0  0  0  0  0  0  0
   -4.7919    3.4540   -2.6057 H   0  0  0  0  0  0  0  0  0  0  0  0
   -0.7940   -1.1232   -1.1301 H   0  0  0  0  0  0  0  0  0  0  0  0
    0.7089    0.7964    0.0030 H   0  0  0  0  0  0  0  0  0  0  0  0
    3.4312   -1.7856    5.6979 H   0  0  0  0  0  0  0  0  0  0  0  0
    4.2321    0.9188    4.7493 H   0  0  0  0  0  0  0  0  0  0  0  0
    4.4324    0.3312    6.3697 H   0  0  0  0  0  0  0  0  0  0  0  0
    5.7884   -0.5535    4.4347 H   0  0  0  0  0  0  0  0  0  0  0  0
    5.3888   -3.3291    4.8729 H   0  0  0  0  0  0  0  0  0  0  0  0
    4.3561   -2.8866    3.0650 H   0  0  0  0  0  0  0  0  0  0  0  0
    6.3428   -2.7798    1.8035 H   0  0  0  0  0  0  0  0  0  0  0  0
  1  2  1  0
  2  3  1  0
  3  4  1  0
  4  5  1  0
  5  6  1  0
  6  7  1  0
  7  8  1  0
  8  9  1  0
  8 10  1  0
 10 11  1  0
 11 12  1  0
 11 13  1  0
 13 14  1  0
 13 15  1  0
 15 16  1  0
 16 17  1  0
 17 18  1  0
 18 19  1  0
 19 20  1  0
 20 21  1  0
 19 22  1  0
 22 23  1  0
 23 24  1  0
 24 25  1  0
 25 26  1  0
 26 27  1  0
 27 28  1  0
 26 29  1  0
 29 30  1  0
 29 31  1  0
 31 32  1  0
 31 33  1  0
 33 34  1  0
 22 35  1  0
 35 36  1  0
  5 37  1  0
 37 38  1  0
 37 39  1  0
 39 40  1  0
 39 41  1  0
 41 42  1  0
 41  3  1  0
 15  7  1  0
 35 17  1  0
 33 24  1  0
  1 43  1  0
  1 44  1  0
  2 45  1  0
  2 46  1  0
  3 47  1  0
  5 48  1  0
  7 49  1  0
  8 50  1  0
  9 51  1  0
  9 52  1  0
 10 53  1  0
 10 54  1  0
 11 55  1  0
 12 56  1  0
 12 57  1  0
 13 58  1  0
 14 59  1  0
 15 60  1  0
 17 61  1  0
 19 62  1  0
 20 63  1  0
 20 64  1  0
 21 65  1  0
 22 66  1  0
 24 67  1  0
 26 68  1  0
 27 69  1  0
 27 70  1  0
 28 71  1  0
 28 72  1  0
 29 73  1  0
 30 74  1  0
 31 75  1  0
 32 76  1  0
 33 77  1  0
 34 78  1  0
 34 79  1  0
 35 80  1  0
 36 81  1  0
 37 82  1  0
 38 83  1  0
 38 84  1  0
 39 85  1  0
 40 86  1  0
 41 87  1  0
 42 88  1  0
M  END
$$$$
tar011
     RDKit          3D

 65 67  0  0  0  0  0  0  0  0999 V2000
    4.9500    3.2710   -2.3753 N   0  0  0  0  0  0  0  0  0  0  0  0
    4.5716    2.1634   -1.4968 C   0  0  0  0  0  0  0  0  0  0  0  0
    4.5175    2.7155   -0.0872 C   0  0  0  0  0  0  0  0  0  0  0  0
    4.1742    1.7918    0.8589 O   0  0  0  0  0  0  0  0  0  0  0  0
    2.8266    1.4671    0.8425 C   0  0  0  0  0  0  0  0  0  0  0  0
    2.4985    0.3974    1.6215 O   0  0  0  0  0  0  0  0  0  0  0  0
    1.9548   -0.6784    0.9701 C   0  0  0  0  0  0  0  0  0  0  0  0
    2.8807   -1.8610    1.2444 C   0  0  0  0  0  0  0  0  0  0  0  0
    2.5059   -3.0411    0.5070 N   0  0  0  0  0  0  0  0  0  0  0  0
    3.0732   -2.0993    2.7006 C   0  0  0  0  0  0  0  0  0  0  0  0
    1.8798   -1.7440    3.5440 C   0  0  0  0  0  0  0  0  0  0  0  0
    1.9946   -0.4115    4.0988 N   0  0  0  0  0  0  0  0  0  0  0  0
    0.6279   -1.9444    2.7230 C   0  0  0  0  0  0  0  0  0  0  0  0
    0.6367   -3.2963    2.3797 O   0  0  0  0  0  0  0  0  0  0  0  0
    0.6143   -1.0037    1.5815 C   0  0  0  0  0  0  0  0  0  0  0  0
   -0.3588   -1.2525    0.6315 O   0  0  0  0  0  0  0  0  0  0  0  0
   -1.3494   -0.3558    0.4908 C   0  0  0  0  0  0  0  0  0  0  0  0
   -1.5722    0.1500   -0.7539 O   0  0  0  0  0  0  0  0  0  0  0  0
   -2.5290   -0.5879   -1.4016 C   0  0  0  0  0  0  0  0  0  0  0  0
   -1.8201   -1.6920   -2.1630 C   0  0  0  0  0  0  0  0  0  0  0  0
   -2.7166   -2.5004   -2.8579 O   0  0  0  0  0  0  0  0  0  0  0  0
   -3.4500   -1.1693   -0.3665 C   0  0  0  0  0  0  0  0  0  0  0  0
   -3.7084   -2.5034   -0.6761 O   0  0  0  0  0  0  0  0  0  0  0  0
   -2.6551   -1.0080    0.9018 C   0  0  0  0  0  0  0  0  0  0  0  0
   -2.4302   -2.2893    1.4118 O   0  0  0  0  0  0  0  0  0  0  0  0
    2.0666    2.7346    1.2212 C   0  0  0  0  0  0  0  0  0  0  0  0
    2.7715    3.4594    2.2880 N   0  0  0  0  0  0  0  0  0  0  0  0
    2.1986    3.6451    0.0062 C   0  0  0  0  0  0  0  0  0  0  0  0
    1.4667    4.7966    0.1149 O   0  0  0  0  0  0  0  0  0  0  0  0
    3.6928    3.9803   -0.0344 C   0  0  0  0  0  0  0  0  0  0  0  0
    3.9812    4.7896   -1.1011 O   0  0  0  0  0  0  0  0  0  0  0  0
    4.1883    3.5142   -3.0483 H   0  0  0  0  0  0  0  0  0  0  0  0
    5.7880    3.0493   -2.9498 H   0  0  0  0  0  0  0  0  0  0  0  0
    5.3929    1.4216   -1.5689 H   0  0  0  0  0  0  0  0  0  0  0  0
    3.6138    1.7903   -1.8619 H   0  0  0  0  0  0  0  0  0  0  0  0
    5.5767    3.0390    0.1425 H   0  0  0  0  0  0  0  0  0  0  0  0
    2.5659    1.2175   -0.2102 H   0  0  0  0  0  0  0  0  0  0  0  0
    1.8661   -0.4991   -0.1264 H   0  0  0  0  0  0  0  0  0  0  0  0
    3.9027   -1.5935    0.8339 H   0  0  0  0  0  0  0  0  0  0  0  0
    3.3119   -3.6752    0.4501 H   0  0  0  0  0  0  0  0  0  0  0  0
    2.0732   -2.7846   -0.3976 H   0  0  0  0  0  0  0  0  0  0  0  0
    3.2520   -3.2060    2.8244 H   0  0  0  0  0  0  0  0  0  0  0  0
    4.0053   -1.6227    3.0583 H   0  0  0  0  0  0  0  0  0  0  0  0
    1.8920   -2.4343    4.4360 H   0  0  0  0  0  0  0  0  0  0  0  0
    1.0610    0.0281    4.2919 H   0  0  0  0  0  0  0  0  0  0  0  0
    2.5547   -0.4296    4.9810 H   0  0  0  0  0  0  0  0  0  0  0  0
   -0.2945   -1.7533    3.3264 H   0  0  0  0  0  0  0  0  0  0  0  0
    0.2908   -3.7799    3.1856 H   0  0  0  0  0  0  0  0  0  0  0  0
    0.2620   -0.0105    2.0162 H   0  0  0  0  0  0  0  0  0  0  0  0
   -1.1810    0.4836    1.2272 H   0  0  0  0  0  0  0  0  0  0  0  0
   -3.1063    0.0218   -2.1244 H   0  0  0  0  0  0  0  0  0  0  0  0
   -1.2349   -2.2941   -1.4320 H   0  0  0  0  0  0  0  0  0  0  0  0
   -1.1417   -1.1660   -2.8969 H   0  0  0  0  0  0  0  0  0  0  0  0
   -2.1980   -3.1169   -3.4042 H   0  0  0  0  0  0  0  0  0  0  0  0
   -4.4163   -0.6293   -0.3251 H   0  0  0  0  0  0  0  0  0  0  0  0
   -4.5880   -2.6274   -1.1159 H   0  0  0  0  0  0  0  0  0  0  0  0
   -3.2031   -0.4149    1.6618 H   0  0  0  0  0  0  0  0  0  0  0  0
   -3.2256   -2.8485    1.2821 H   0  0  0  0  0  0  0  0  0  0  0  0
    1.0251    2.5326    1.4909 H   0  0  0  0  0  0  0  0  0  0  0  0
    2.2133    3.4523    3.1703 H   0  0  0  0  0  0  0  0  0  0  0  0
    3.7407    3.1210    2.4137 H   0  0  0  0  0  0  0  0  0  0  0  0
    2.0078    3.0698   -0.9318 H   0  0  0  0  0  0  0  0  0  0  0  0
    1.0833    4.9802    0.9938 H   0  0  0  0  0  0  0  0  0  0  0  0
    3.9059    4.5150    0.9173 H   0  0  0  0  0  0  0  0  0  0  0  0
    4.7761    5.3611   -0.8648 H   0  0  0  0  0  0  0  0  0  0  0  0
  1  2  1  0
  2  3  1  0
  3  4  1  0
  4  5  1  0
  5  6  1  0
  6  7  1  0
  7  8  1  0
  8  9  1  0
  8 10  1  0
 10 11  1  0
 11 12  1  0
 11 13  1  0
 13 14  1  0
 13 15  1  0
 15 16  1  0
 16 17  1  0
 17 18  1  0
 18 19  1  0
 19 20  1  0
 20 21  1  0
 19 22  1  0
 22 23  1  0
 22 24  1  0
 24 25  1  0
  5 26  1  0
 26 27  1  0
 26 28  1  0
 28 29  1  0
 28 30  1  0
 30 31  1  0
 30  3  1  0
 15  7  1  0
 24 17  1  0
  1 32  1  0
  1 33  1  0
  2 34  1  0
  2 35  1  0
  3 36  1  0
  5 37  1  0
  7 38  1  0
  8 39  1  0
  9 40  1  0
  9 41  1  0
 10 42  1  0
 10 43  1  0
 11 44  1  0
 12 45  1  0
 12 46  1  0
 13 47  1  0
 14 48  1  0
 15 49  1  0
 17 50  1  0
 19 51  1  0
 20 52  1  0
 20 53  1  0
 21 54  1  0
 22 55  1  0
 23 56  1  0
 24 57  1  0
 25 58  1  0
 26 59  1  0
 27 60  1  0
 27 61  1  0
 28 62  1  0
 29 63  1  0
 30 64  1  0
 31 65  1  0
M  END
$$$$
tar012
     RDKit          3D

 24 25  0  0  0  0  0  0  0  0999 V2000
    0.1982   -2.9943    3.1789 C   0  0  0  0  0  0  0  0  0  0  0  0
    1.0127   -2.0061    2.6242 O   0  0  0  0  0  0  0  0  0  0  0  0
    0.6591   -1.1362    1.6318 C   0  0  0  0  0  0  0  0  0  0  0  0
   -0.5964   -1.1648    1.0679 C   0  0  0  0  0  0  0  0  0  0  0  0
   -0.9497   -0.2692    0.0512 C   0  0  0  0  0  0  0  0  0  0  0  0
   -0.0364    0.6513   -0.3927 C   0  0  0  0  0  0  0  0  0  0  0  0
    1.2299    0.6892    0.1675 C   0  0  0  0  0  0  0  0  0  0  0  0
    2.1779    1.6058   -0.2564 C   0  0  0  0  0  0  0  0  0  0  0  0
    3.4472    1.6785    0.2722 C   0  0  0  0  0  0  0  0  0  0  0  0
    3.7786    0.7798    1.2815 C   0  0  0  0  0  0  0  0  0  0  0  0
    2.8447   -0.1378    1.7129 C   0  0  0  0  0  0  0  0  0  0  0  0
    1.5748   -0.2111    1.1847 C   0  0  0  0  0  0  0  0  0  0  0  0
   -2.2303   -0.2791   -0.5423 N   0  0  0  0  0  0  0  0  0  0  0  0
   -0.3913   -2.6626    4.0482 H   0  0  0  0  0  0  0  0  0  0  0  0
    0.7905   -3.8865    3.5349 H   0  0  0  0  0  0  0  0  0  0  0  0
   -0.5359   -3.4167    2.4423 H   0  0  0  0  0  0  0  0  0  0  0  0
   -1.3638   -1.8652    1.3716 H   0  0  0  0  0  0  0  0  0  0  0  0
   -0.2553    1.3797   -1.1873 H   0  0  0  0  0  0  0  0  0  0  0  0
    1.9092    2.2992   -1.0412 H   0  0  0  0  0  0  0  0  0  0  0  0
    4.1793    2.3941   -0.0625 H   0  0  0  0  0  0  0  0  0  0  0  0
    4.7793    0.8186    1.7157 H   0  0  0  0  0  0  0  0  0  0  0  0
    3.1193   -0.8254    2.4950 H   0  0  0  0  0  0  0  0  0  0  0  0
   -2.9118    0.4909   -0.3162 H   0  0  0  0  0  0  0  0  0  0  0  0
   -2.5550   -1.0101   -1.2021 H   0  0  0  0  0  0  0  0  0  0  0  0
  1  2  1  0
  2  3  1  0
  3  4  2  0
  4  5  1  0
  5  6  2  0
  6  7  1  0
  7  8  2  0
  8  9  1  0
  9 10  2  0
 10 11  1  0
 11 12  2  0
  5 13  1  0
 12  3  1  0
 12  7  1  0
  1 14  1  0
  1 15  1  0
  1 16  1  0
  4 17  1  0
  6 18  1  0
  8 19  1  0
  9 20  1  0
 10 21  1  0
 11 22  1  0
 13 23  1  0
 13 24  1  0
M  END
$$$$
tar013
     RDKit          3D

 45 47  0  0  0  0  0  0  0  0999 V2000
   -1.1574    1.6892   -2.0880 C   0  0  0  0  0  0  0  0  0  0  0  0
   -2.2359    0.7665   -1.6816 C   0  0  0  0  0  0  0  0  0  0  0  0
   -3.3398    0.8117   -2.2553 O   0  0  0  0  0  0  0  0  0  0  0  0
   -2.0281   -0.2037   -0.6126 C   0  0  0  0  0  0  0  0  0  0  0  0
   -0.8233   -0.2915    0.0590 C   0  0  0  0  0  0  0  0  0  0  0  0
   -0.5869   -1.2133    1.0897 C   0  0  0  0  0  0  0  0  0  0  0  0
   -1.6260   -2.0416    1.4066 C   0  0  0  0  0  0  0  0  0  0  0  0
   -2.8057   -1.9725    0.7654 C   0  0  0  0  0  0  0  0  0  0  0  0
   -3.0436   -1.0564   -0.2589 C   0  0  0  0  0  0  0  0  0  0  0  0
   -1.4501   -3.2587    2.6783 S   0  0  0  0  0  0  0  0  0  0  0  0
    0.2208   -3.1123    3.2716 C   0  0  0  0  0  0  0  0  0  0  0  0
    0.6002   -3.9577    4.2440 C   0  0  0  0  0  0  0  0  0  0  0  0
    1.8685   -3.9455    4.8062 C   0  0  0  0  0  0  0  0  0  0  0  0
    2.7367   -3.0050    4.3084 C   0  0  0  0  0  0  0  0  0  0  0  0
    2.3529   -2.1259    3.3021 C   0  0  0  0  0  0  0  0  0  0  0  0
    1.0634   -2.1650    2.7551 C   0  0  0  0  0  0  0  0  0  0  0  0
    0.6959   -1.2542    1.7184 N   0  0  0  0  0  0  0  0  0  0  0  0
    1.6853   -0.2872    1.2360 C   0  0  0  0  0  0  0  0  0  0  0  0
    2.6400   -0.8689    0.2285 C   0  0  0  0  0  0  0  0  0  0  0  0
    3.5942    0.2411   -0.1433 C   0  0  0  0  0  0  0  0  0  0  0  0
    4.5845   -0.1295   -1.1120 N   0  0  0  0  0  0  0  0  0  0  0  0
    4.0383   -0.3733   -2.4260 C   0  0  0  0  0  0  0  0  0  0  0  0
    5.4016   -1.2470   -0.6819 C   0  0  0  0  0  0  0  0  0  0  0  0
   -1.5256    2.5276   -2.7093 H   0  0  0  0  0  0  0  0  0  0  0  0
   -0.6691    2.1582   -1.1935 H   0  0  0  0  0  0  0  0  0  0  0  0
   -0.3776    1.1755   -2.6953 H   0  0  0  0  0  0  0  0  0  0  0  0
   -0.0534    0.3890   -0.2695 H   0  0  0  0  0  0  0  0  0  0  0  0
   -3.6348   -2.6397    1.0259 H   0  0  0  0  0  0  0  0  0  0  0  0
   -3.9728   -0.9928   -0.7727 H   0  0  0  0  0  0  0  0  0  0  0  0
   -0.0623   -4.7318    4.6768 H   0  0  0  0  0  0  0  0  0  0  0  0
    2.1573   -4.6318    5.5868 H   0  0  0  0  0  0  0  0  0  0  0  0
    3.7349   -2.9646    4.7227 H   0  0  0  0  0  0  0  0  0  0  0  0
    3.0706   -1.4108    2.9562 H   0  0  0  0  0  0  0  0  0  0  0  0
    2.3382    0.0212    2.1189 H   0  0  0  0  0  0  0  0  0  0  0  0
    1.2415    0.6767    0.9165 H   0  0  0  0  0  0  0  0  0  0  0  0
    2.1022   -1.2633   -0.6686 H   0  0  0  0  0  0  0  0  0  0  0  0
    3.2205   -1.6746    0.6962 H   0  0  0  0  0  0  0  0  0  0  0  0
    4.0956    0.5818    0.7779 H   0  0  0  0  0  0  0  0  0  0  0  0
    2.9992    1.0668   -0.5583 H   0  0  0  0  0  0  0  0  0  0  0  0
    4.8005   -0.9722   -2.9873 H   0  0  0  0  0  0  0  0  0  0  0  0
    3.1141   -0.9467   -2.3895 H   0  0  0  0  0  0  0  0  0  0  0  0
    3.9276    0.5761   -3.0059 H   0  0  0  0  0  0  0  0  0  0  0  0
    5.8976   -1.0799    0.2703 H   0  0  0  0  0  0  0  0  0  0  0  0
    6.1793   -1.3934   -1.4596 H   0  0  0  0  0  0  0  0  0  0  0  0
    4.7855   -2.1805   -0.7046 H   0  0  0  0  0  0  0  0  0  0  0  0
  1  2  1  0
  2  3  2  0
  2  4  1  0
  4  5  2  0
  5  6  1  0
  6  7  2  0
  7  8  1  0
  8  9  2  0
  7 10  1  0
 10 11  1  0
 11 12  2  0
 12 13  1  0
 13 14  2  0
 14 15  1  0
 15 16  2  0
 16 17  1  0
 17 18  1  0
 18 19  1  0
 19 20  1  0
 20 21  1  0
 21 22  1  0
 21 23  1  0
  9  4  1  0
 17  6  1  0
 16 11  1  0
  1 24  1  0
  1 25  1  0
  1 26  1  0
  5 27  1  0
  8 28  1  0
  9 29  1  0
 12 30  1  0
 13 31  1  0
 14 32  1  0
 15 33  1  0
 18 34  1  0
 18 35  1  0
 19 36  1  0
 19 37  1  0
 20 38  1  0
 20 39  1  0
 22 40  1  0
 22 41  1  0
 22 42  1  0
 23 43  1  0
 23 44  1  0
 23 45  1  0
M  END
$$$$
tar014
     RDKit          3D

 42 44  0  0  0  0  0  0  0  0999 V2000
   -0.7581    2.1303   -1.7115 N   0  0  0  0  0  0  0  0  0  0  0  0
    0.4381    1.4239   -1.3067 C   0  0  0  0  0  0  0  0  0  0  0  0
    0.3315    0.3351   -0.5039 C   0  0  0  0  0  0  0  0  0  0  0  0
    1.9562   -0.1622   -0.3054 S   0  0  0  0  0  0  0  0  0  0  0  0
    2.7246    1.0187   -1.2497 C   0  0  0  0  0  0  0  0  0  0  0  0
    4.0381    1.2163   -1.5536 N   0  0  0  0  0  0  0  0  0  0  0  0
    4.4215    2.2448   -2.3674 C   0  0  0  0  0  0  0  0  0  0  0  0
    5.8594    2.3759   -2.6726 C   0  0  0  0  0  0  0  0  0  0  0  0
    6.5331    3.3665   -1.7867 C   0  0  0  0  0  0  0  0  0  0  0  0
    3.4044    3.0317   -2.8257 C   0  0  0  0  0  0  0  0  0  0  0  0
    2.0819    2.8524   -2.5344 C   0  0  0  0  0  0  0  0  0  0  0  0
    1.6916    1.7814   -1.6967 C   0  0  0  0  0  0  0  0  0  0  0  0
    3.7693    4.1929   -3.7223 C   0  0  0  0  0  0  0  0  0  0  0  0
   -0.8598   -0.4062    0.0134 C   0  0  0  0  0  0  0  0  0  0  0  0
   -0.6503   -1.4652    0.9029 N   0  0  0  0  0  0  0  0  0  0  0  0
   -1.6089   -2.2981    1.4783 C   0  0  0  0  0  0  0  0  0  0  0  0
   -1.2322   -3.2634    2.4114 C   0  0  0  0  0  0  0  0  0  0  0  0
   -2.1628   -4.1187    2.9587 C   0  0  0  0  0  0  0  0  0  0  0  0
   -1.7610   -5.1563    3.9511 C   0  0  0  0  0  0  0  0  0  0  0  0
   -2.8543   -5.5289    4.6676 F   0  0  0  0  0  0  0  0  0  0  0  0
   -1.2853   -6.2727    3.2328 F   0  0  0  0  0  0  0  0  0  0  0  0
   -0.7604   -4.7532    4.7904 F   0  0  0  0  0  0  0  0  0  0  0  0
   -3.4774   -4.0303    2.5945 C   0  0  0  0  0  0  0  0  0  0  0  0
   -3.8790   -3.0898    1.6818 C   0  0  0  0  0  0  0  0  0  0  0  0
   -2.9362   -2.2422    1.1428 C   0  0  0  0  0  0  0  0  0  0  0  0
   -1.9564   -0.0284   -0.3876 O   0  0  0  0  0  0  0  0  0  0  0  0
   -0.9913    1.9448   -2.7256 H   0  0  0  0  0  0  0  0  0  0  0  0
   -1.3071    2.7458   -1.1023 H   0  0  0  0  0  0  0  0  0  0  0  0
    6.3874    1.3932   -2.6985 H   0  0  0  0  0  0  0  0  0  0  0  0
    5.8850    2.7938   -3.7252 H   0  0  0  0  0  0  0  0  0  0  0  0
    5.8206    4.1330   -1.4339 H   0  0  0  0  0  0  0  0  0  0  0  0
    6.9971    2.9068   -0.8703 H   0  0  0  0  0  0  0  0  0  0  0  0
    7.3250    3.9116   -2.3747 H   0  0  0  0  0  0  0  0  0  0  0  0
    1.3766    3.5382   -2.9643 H   0  0  0  0  0  0  0  0  0  0  0  0
    4.3310    4.8979   -3.0541 H   0  0  0  0  0  0  0  0  0  0  0  0
    2.8556    4.7104   -4.0750 H   0  0  0  0  0  0  0  0  0  0  0  0
    4.3159    3.8857   -4.6003 H   0  0  0  0  0  0  0  0  0  0  0  0
    0.3776   -1.6884    1.2169 H   0  0  0  0  0  0  0  0  0  0  0  0
   -0.2091   -3.3524    2.7219 H   0  0  0  0  0  0  0  0  0  0  0  0
   -4.2154   -4.6976    3.0073 H   0  0  0  0  0  0  0  0  0  0  0  0
   -4.9087   -3.0073    1.3656 H   0  0  0  0  0  0  0  0  0  0  0  0
   -3.3154   -1.4976    0.4293 H   0  0  0  0  0  0  0  0  0  0  0  0
  1  2  1  0
  2  3  2  0
  3  4  1  0
  4  5  1  0
  5  6  2  0
  6  7  1  0
  7  8  1  0
  8  9  1  0
  7 10  2  0
 10 11  1  0
 11 12  2  0
 10 13  1  0
  3 14  1  0
 14 15  1  0
 15 16  1  0
 16 17  2  0
 17 18  1  0
 18 19  1  0
 19 20  1  0
 19 21  1  0
 19 22  1  0
 18 23  2  0
 23 24  1  0
 24 25  2  0
 14 26  2  0
 12  2  1  0
 12  5  1  0
 25 16  1  0
  1 27  1  0
  1 28  1  0
  8 29  1  0
  8 30  1  0
  9 31  1  0
  9 32  1  0
  9 33  1  0
 11 34  1  0
 13 35  1  0
 13 36  1  0
 13 37  1  0
 15 38  1  0
 17 39  1  0
 23 40  1  0
 24 41  1  0
 25 42  1  0
M  END
$$$$
tar015
     RDKit          3D

 36 38  0  0  0  0  0  0  0  0999 V2000
    6.4299    2.8333   -1.7131 C   0  0  0  0  0  0  0  0  0  0  0  0
    5.1319    2.1987   -1.3313 C   0  0  0  0  0  0  0  0  0  0  0  0
    3.9604    2.7572   -1.7500 C   0  0  0  0  0  0  0  0  0  0  0  0
    2.7198    2.2746   -1.4147 C   0  0  0  0  0  0  0  0  0  0  0  0
    2.6055    1.1481   -0.5970 C   0  0  0  0  0  0  0  0  0  0  0  0
    3.8017    0.6074   -0.1950 C   0  0  0  0  0  0  0  0  0  0  0  0
    3.3463   -0.6927    0.8179 S   0  0  0  0  0  0  0  0  0  0  0  0
    1.6381   -0.5200    0.7123 C   0  0  0  0  0  0  0  0  0  0  0  0
    0.6461   -1.3516    1.4584 C   0  0  0  0  0  0  0  0  0  0  0  0
    1.2155   -2.3400    2.2631 N   0  0  0  0  0  0  0  0  0  0  0  0
    0.5093   -3.2111    3.1173 C   0  0  0  0  0  0  0  0  0  0  0  0
    1.2597   -3.8007    4.1427 C   0  0  0  0  0  0  0  0  0  0  0  0
    0.6956   -4.6222    5.0291 C   0  0  0  0  0  0  0  0  0  0  0  0
    1.4948   -5.2439    6.1392 C   0  0  0  0  0  0  0  0  0  0  0  0
    1.6255   -4.2713    7.1287 F   0  0  0  0  0  0  0  0  0  0  0  0
    2.8021   -5.4359    5.6388 F   0  0  0  0  0  0  0  0  0  0  0  0
    0.9856   -6.4217    6.5741 F   0  0  0  0  0  0  0  0  0  0  0  0
   -0.6448   -4.8938    4.9409 C   0  0  0  0  0  0  0  0  0  0  0  0
   -1.4176   -4.3315    3.9531 C   0  0  0  0  0  0  0  0  0  0  0  0
   -0.8225   -3.4708    3.0189 C   0  0  0  0  0  0  0  0  0  0  0  0
   -0.5679   -1.1769    1.3786 O   0  0  0  0  0  0  0  0  0  0  0  0
    1.5002    0.5447   -0.1102 C   0  0  0  0  0  0  0  0  0  0  0  0
    0.1376    0.9841   -0.4494 N   0  0  0  0  0  0  0  0  0  0  0  0
    5.0292    1.1128   -0.5477 N   0  0  0  0  0  0  0  0  0  0  0  0
    6.1910    3.7317   -2.2965 H   0  0  0  0  0  0  0  0  0  0  0  0
    6.9596    3.1204   -0.7618 H   0  0  0  0  0  0  0  0  0  0  0  0
    7.0856    2.1224   -2.2599 H   0  0  0  0  0  0  0  0  0  0  0  0
    3.9795    3.6558   -2.4032 H   0  0  0  0  0  0  0  0  0  0  0  0
    1.8446    2.7941   -1.7949 H   0  0  0  0  0  0  0  0  0  0  0  0
    2.2823   -2.4319    2.2218 H   0  0  0  0  0  0  0  0  0  0  0  0
    2.3280   -3.5766    4.2084 H   0  0  0  0  0  0  0  0  0  0  0  0
   -1.1520   -5.5684    5.6438 H   0  0  0  0  0  0  0  0  0  0  0  0
   -2.4706   -4.5262    3.8406 H   0  0  0  0  0  0  0  0  0  0  0  0
   -1.4640   -3.0449    2.2401 H   0  0  0  0  0  0  0  0  0  0  0  0
   -0.5080    1.3049    0.3076 H   0  0  0  0  0  0  0  0  0  0  0  0
   -0.1156    0.9623   -1.4524 H   0  0  0  0  0  0  0  0  0  0  0  0
  1  2  1  0
  2  3  2  0
  3  4  1  0
  4  5  2  0
  5  6  1  0
  6  7  1  0
  7  8  1  0
  8  9  1  0
  9 10  1  0
 10 11  1  0
 11 12  2  0
 12 13  1  0
 13 14  1  0
 14 15  1  0
 14 16  1  0
 14 17  1  0
 13 18  2  0
 18 19  1  0
 19 20  2  0
  9 21  2  0
  8 22  2  0
 22 23  1  0
  6 24  2  0
 24  2  1  0
 22  5  1  0
 20 11  1  0
  1 25  1  0
  1 26  1  0
  1 27  1  0
  3 28  1  0
  4 29  1  0
 10 30  1  0
 12 31  1  0
 18 32  1  0
 19 33  1  0
 20 34  1  0
 23 35  1  0
 23 36  1  0
M  END
$$$$
tar016
     RDKit          3D

 47 51  0  0  0  0  0  0  0  0999 V2000
   -2.5328    0.5145   -1.4463 C   0  0  0  0  0  0  0  0  0  0  0  0
   -3.7330    0.7615   -2.2494 C   0  0  0  0  0  0  0  0  0  0  0  0
   -4.8803    0.0128   -2.0917 C   0  0  0  0  0  0  0  0  0  0  0  0
   -6.0164    0.2372   -2.8428 C   0  0  0  0  0  0  0  0  0  0  0  0
   -6.0522    1.2331   -3.7955 C   0  0  0  0  0  0  0  0  0  0  0  0
   -7.2425    1.4836   -4.5968 C   0  0  0  0  0  0  0  0  0  0  0  0
   -8.3307    0.8062   -4.4811 N   0  0  0  0  0  0  0  0  0  0  0  0
   -9.3520    1.2477   -5.3804 C   0  0  0  0  0  0  0  0  0  0  0  0
   -8.5827    2.0460   -6.4099 C   0  0  0  0  0  0  0  0  0  0  0  0
   -7.4242    2.4685   -5.6064 N   0  0  0  0  0  0  0  0  0  0  0  0
   -4.8974    1.9852   -3.9530 C   0  0  0  0  0  0  0  0  0  0  0  0
   -3.7626    1.7597   -3.2014 C   0  0  0  0  0  0  0  0  0  0  0  0
   -1.3302    1.1749   -1.4950 C   0  0  0  0  0  0  0  0  0  0  0  0
   -0.5238    0.5806   -0.5527 C   0  0  0  0  0  0  0  0  0  0  0  0
   -1.2581   -0.4161    0.0350 C   0  0  0  0  0  0  0  0  0  0  0  0
   -0.8111   -1.3232    1.1003 C   0  0  0  0  0  0  0  0  0  0  0  0
   -1.6420   -2.2946    1.6182 C   0  0  0  0  0  0  0  0  0  0  0  0
   -1.2466   -3.1581    2.6176 C   0  0  0  0  0  0  0  0  0  0  0  0
    0.0291   -3.0741    3.1453 C   0  0  0  0  0  0  0  0  0  0  0  0
    0.4860   -3.9640    4.1988 C   0  0  0  0  0  0  0  0  0  0  0  0
    1.6592   -3.9291    4.7261 N   0  0  0  0  0  0  0  0  0  0  0  0
    1.7698   -4.9631    5.7497 C   0  0  0  0  0  0  0  0  0  0  0  0
    0.3383   -5.3361    6.0392 C   0  0  0  0  0  0  0  0  0  0  0  0
   -0.3152   -4.9845    4.7740 N   0  0  0  0  0  0  0  0  0  0  0  0
    0.8733   -2.0909    2.6227 C   0  0  0  0  0  0  0  0  0  0  0  0
    0.4549   -1.2388    1.6229 C   0  0  0  0  0  0  0  0  0  0  0  0
   -2.4380   -0.4144   -0.5280 O   0  0  0  0  0  0  0  0  0  0  0  0
   -4.8614   -0.7701   -1.3473 H   0  0  0  0  0  0  0  0  0  0  0  0
   -6.9205   -0.3557   -2.7158 H   0  0  0  0  0  0  0  0  0  0  0  0
  -10.0756    1.9099   -4.8682 H   0  0  0  0  0  0  0  0  0  0  0  0
   -9.8450    0.4075   -5.9099 H   0  0  0  0  0  0  0  0  0  0  0  0
   -9.1490    2.9279   -6.7682 H   0  0  0  0  0  0  0  0  0  0  0  0
   -8.2014    1.4078   -7.2325 H   0  0  0  0  0  0  0  0  0  0  0  0
   -6.8432    3.3259   -5.7462 H   0  0  0  0  0  0  0  0  0  0  0  0
   -4.9391    2.7686   -4.7088 H   0  0  0  0  0  0  0  0  0  0  0  0
   -2.8732    2.3611   -3.3434 H   0  0  0  0  0  0  0  0  0  0  0  0
   -1.0614    1.9942   -2.1374 H   0  0  0  0  0  0  0  0  0  0  0  0
    0.4944    0.8183   -0.2917 H   0  0  0  0  0  0  0  0  0  0  0  0
   -2.6375   -2.3488    1.1959 H   0  0  0  0  0  0  0  0  0  0  0  0
   -1.9314   -3.9072    2.9960 H   0  0  0  0  0  0  0  0  0  0  0  0
    2.3184   -4.5804    6.6105 H   0  0  0  0  0  0  0  0  0  0  0  0
    2.2569   -5.8407    5.2556 H   0  0  0  0  0  0  0  0  0  0  0  0
   -0.1236   -4.7009    6.8124 H   0  0  0  0  0  0  0  0  0  0  0  0
    0.2511   -6.4158    6.2346 H   0  0  0  0  0  0  0  0  0  0  0  0
   -1.1913   -5.4373    4.4319 H   0  0  0  0  0  0  0  0  0  0  0  0
    1.8635   -2.0492    3.0542 H   0  0  0  0  0  0  0  0  0  0  0  0
    1.1503   -0.4849    1.2452 H   0  0  0  0  0  0  0  0  0  0  0  0
  1  2  1  0
  2  3  2  0
  3  4  1  0
  4  5  2  0
  5  6  1  0
  6  7  2  0
  7  8  1  0
  8  9  1  0
  9 10  1  0
  5 11  1  0
 11 12  2  0
  1 13  2  0
 13 14  1  0
 14 15  2  0
 15 16  1  0
 16 17  2  0
 17 18  1  0
 18 19  2  0
 19 20  1  0
 20 21  2  0
 21 22  1  0
 22 23  1  0
 23 24  1  0
 19 25  1  0
 25 26  2  0
 15 27  1  0
 27  1  1  0
 12  2  1  0
 10  6  1  0
 26 16  1  0
 24 20  1  0
  3 28  1  0
  4 29  1  0
  8 30  1  0
  8 31  1  0
  9 32  1  0
  9 33  1  0
 10 34  1  0
 11 35  1  0
 12 36  1  0
 13 37  1  0
 14 38  1  0
 17 39  1  0
 18 40  1  0
 22 41  1  0
 22 42  1  0
 23 43  1  0
 23 44  1  0
 24 45  1  0
 25 46  1  0
 26 47  1  0
M  END
$$$$
tar017
     RDKit          3D

 39 41  0  0  0  0  0  0  0  0999 V2000
    0.7528   -5.5589    6.5903 N   0  0  0  0  0  0  0  0  0  0  0  0
   -0.1630   -5.0327    5.8728 C   0  0  0  0  0  0  0  0  0  0  0  0
   -1.5106   -5.3999    6.1271 N   0  0  0  0  0  0  0  0  0  0  0  0
    0.1057   -4.0690    4.8003 C   0  0  0  0  0  0  0  0  0  0  0  0
    1.3893   -3.6626    4.4932 C   0  0  0  0  0  0  0  0  0  0  0  0
    1.6531   -2.7527    3.4818 C   0  0  0  0  0  0  0  0  0  0  0  0
   -0.9159   -3.5386    4.0648 C   0  0  0  0  0  0  0  0  0  0  0  0
   -0.6594   -2.6386    3.0639 C   0  0  0  0  0  0  0  0  0  0  0  0
    0.6135   -2.2190    2.7404 C   0  0  0  0  0  0  0  0  0  0  0  0
    0.8581   -1.2579    1.6678 C   0  0  0  0  0  0  0  0  0  0  0  0
   -0.1541   -0.7029    0.9053 C   0  0  0  0  0  0  0  0  0  0  0  0
    0.4620    0.1348    0.0204 C   0  0  0  0  0  0  0  0  0  0  0  0
    1.8171    0.0834    0.2475 C   0  0  0  0  0  0  0  0  0  0  0  0
    2.8394    0.8240   -0.4755 C   0  0  0  0  0  0  0  0  0  0  0  0
    2.4577    1.6656   -1.4887 C   0  0  0  0  0  0  0  0  0  0  0  0
    3.3674    2.4058   -2.2252 C   0  0  0  0  0  0  0  0  0  0  0  0
    4.7034    2.2763   -1.9108 C   0  0  0  0  0  0  0  0  0  0  0  0
    5.6899    3.0578   -2.6852 C   0  0  0  0  0  0  0  0  0  0  0  0
    5.2402    3.9128   -3.7220 N   0  0  0  0  0  0  0  0  0  0  0  0
    6.9483    3.0021   -2.4651 N   0  0  0  0  0  0  0  0  0  0  0  0
    5.1427    1.4448   -0.9022 C   0  0  0  0  0  0  0  0  0  0  0  0
    4.1819    0.7303   -0.2014 C   0  0  0  0  0  0  0  0  0  0  0  0
    1.9893   -0.7695    1.2477 O   0  0  0  0  0  0  0  0  0  0  0  0
    1.7747   -5.3873    6.5201 H   0  0  0  0  0  0  0  0  0  0  0  0
   -2.0727   -6.0291    5.5151 H   0  0  0  0  0  0  0  0  0  0  0  0
   -1.9691   -5.0199    6.9752 H   0  0  0  0  0  0  0  0  0  0  0  0
    2.2393   -4.0583    5.0528 H   0  0  0  0  0  0  0  0  0  0  0  0
    2.6626   -2.4343    3.2417 H   0  0  0  0  0  0  0  0  0  0  0  0
   -1.9245   -3.8249    4.2683 H   0  0  0  0  0  0  0  0  0  0  0  0
   -1.4953   -2.2314    2.4929 H   0  0  0  0  0  0  0  0  0  0  0  0
   -1.2321   -0.8895    0.9857 H   0  0  0  0  0  0  0  0  0  0  0  0
   -0.0265    0.7384   -0.7329 H   0  0  0  0  0  0  0  0  0  0  0  0
    1.4152    1.7809   -1.7504 H   0  0  0  0  0  0  0  0  0  0  0  0
    3.0733    3.0697   -3.0235 H   0  0  0  0  0  0  0  0  0  0  0  0
    5.0443    3.5527   -4.6626 H   0  0  0  0  0  0  0  0  0  0  0  0
    5.1110    4.9178   -3.5135 H   0  0  0  0  0  0  0  0  0  0  0  0
    7.4552    2.4533   -1.7725 H   0  0  0  0  0  0  0  0  0  0  0  0
    6.2094    1.3374   -0.6465 H   0  0  0  0  0  0  0  0  0  0  0  0
    4.5204    0.0809    0.5858 H   0  0  0  0  0  0  0  0  0  0  0  0
  1  2  2  3
  2  3  1  0
  2  4  1  0
  4  5  2  0
  5  6  1  0
  4  7  1  0
  7  8  2  0
  8  9  1  0
  9 10  1  0
 10 11  2  0
 11 12  1  0
 12 13  2  0
 13 14  1  0
 14 15  2  0
 15 16  1  0
 16 17  2  0
 17 18  1  0
 18 19  1  0
 18 20  2  3
 17 21  1  0
 21 22  2  0
 13 23  1  0
  9  6  2  0
 23 10  1  0
 22 14  1  0
  1 24  1  0
  3 25  1  0
  3 26  1  0
  5 27  1  0
  6 28  1  0
  7 29  1  0
  8 30  1  0
 11 31  1  0
 12 32  1  0
 15 33  1  0
 16 34  1  0
 19 35  1  0
 19 36  1  0
 20 37  1  0
 21 38  1  0
 22 39  1  0
M  END
$$$$
tar018
     RDKit          3D

 69 71  0  0  0  0  0  0  0  0999 V2000
    5.7889   -1.1046    1.2343 C   0  0  0  0  0  0  0  0  0  0  0  0
    5.2272   -0.0404    2.0729 C   0  0  0  0  0  0  0  0  0  0  0  0
    4.0009    0.6755    1.6181 C   0  0  0  0  0  0  0  0  0  0  0  0
    4.1063    1.4137    0.3281 C   0  0  0  0  0  0  0  0  0  0  0  0
    4.4145    0.6570   -0.8957 C   0  0  0  0  0  0  0  0  0  0  0  0
    2.8149   -0.0702    1.7234 N   0  0  0  0  0  0  0  0  0  0  0  0
    1.7149   -0.1517    1.1882 C   0  0  0  0  0  0  0  0  0  0  0  0
    0.7256   -1.1457    1.6626 C   0  0  0  0  0  0  0  0  0  0  0  0
    0.9973   -2.0050    2.7077 C   0  0  0  0  0  0  0  0  0  0  0  0
    0.0673   -2.9349    3.1519 C   0  0  0  0  0  0  0  0  0  0  0  0
   -1.1680   -3.0312    2.5590 C   0  0  0  0  0  0  0  0  0  0  0  0
   -1.4474   -2.1789    1.5167 C   0  0  0  0  0  0  0  0  0  0  0  0
   -0.5187   -1.2565    1.0795 C   0  0  0  0  0  0  0  0  0  0  0  0
   -2.1569   -4.0173    3.0350 C   0  0  0  0  0  0  0  0  0  0  0  0
   -2.0054   -4.9196    4.0656 C   0  0  0  0  0  0  0  0  0  0  0  0
   -3.1671   -5.6590    4.1869 C   0  0  0  0  0  0  0  0  0  0  0  0
   -3.9955   -5.1644    3.2028 C   0  0  0  0  0  0  0  0  0  0  0  0
   -3.3633   -4.2115    2.5597 O   0  0  0  0  0  0  0  0  0  0  0  0
   -5.3633   -5.6474    2.9399 C   0  0  0  0  0  0  0  0  0  0  0  0
   -6.1020   -5.0776    1.9168 C   0  0  0  0  0  0  0  0  0  0  0  0
   -7.3877   -5.5084    1.6533 C   0  0  0  0  0  0  0  0  0  0  0  0
   -7.9711   -6.5160    2.4000 C   0  0  0  0  0  0  0  0  0  0  0  0
   -7.2119   -7.0630    3.4101 C   0  0  0  0  0  0  0  0  0  0  0  0
   -5.9236   -6.6380    3.6812 C   0  0  0  0  0  0  0  0  0  0  0  0
   -9.3432   -6.9715    2.1179 C   0  0  0  0  0  0  0  0  0  0  0  0
   -9.8015   -7.9012    2.8535 N   0  0  0  0  0  0  0  0  0  0  0  0
  -11.1692   -8.4617    2.6863 C   0  0  0  0  0  0  0  0  0  0  0  0
  -12.0948   -7.3902    3.1940 C   0  0  0  0  0  0  0  0  0  0  0  0
  -13.5539   -7.6974    3.1091 C   0  0  0  0  0  0  0  0  0  0  0  0
  -11.2310   -9.7628    3.4307 C   0  0  0  0  0  0  0  0  0  0  0  0
  -12.5159  -10.5111    3.3720 C   0  0  0  0  0  0  0  0  0  0  0  0
  -10.1087   -6.3966    1.0756 N   0  0  0  0  0  0  0  0  0  0  0  0
    1.3235    0.6720    0.1105 N   0  0  0  0  0  0  0  0  0  0  0  0
    6.6096   -1.6675    1.7903 H   0  0  0  0  0  0  0  0  0  0  0  0
    5.0789   -1.8506    0.8539 H   0  0  0  0  0  0  0  0  0  0  0  0
    6.3268   -0.6734    0.3710 H   0  0  0  0  0  0  0  0  0  0  0  0
    5.9919    0.7405    2.3117 H   0  0  0  0  0  0  0  0  0  0  0  0
    4.9741   -0.4806    3.0821 H   0  0  0  0  0  0  0  0  0  0  0  0
    3.8826    1.5134    2.3932 H   0  0  0  0  0  0  0  0  0  0  0  0
    3.1813    2.0300    0.1813 H   0  0  0  0  0  0  0  0  0  0  0  0
    4.9104    2.2261    0.4114 H   0  0  0  0  0  0  0  0  0  0  0  0
    4.2834   -0.4431   -0.8500 H   0  0  0  0  0  0  0  0  0  0  0  0
    3.8107    1.0945   -1.7347 H   0  0  0  0  0  0  0  0  0  0  0  0
    5.4639    0.8409   -1.2075 H   0  0  0  0  0  0  0  0  0  0  0  0
    1.9754   -1.9208    3.1686 H   0  0  0  0  0  0  0  0  0  0  0  0
    0.3099   -3.5987    3.9773 H   0  0  0  0  0  0  0  0  0  0  0  0
   -2.4217   -2.2566    1.0509 H   0  0  0  0  0  0  0  0  0  0  0  0
   -0.7368   -0.5712    0.2449 H   0  0  0  0  0  0  0  0  0  0  0  0
   -1.1127   -5.0214    4.6738 H   0  0  0  0  0  0  0  0  0  0  0  0
   -3.3696   -6.4605    4.9130 H   0  0  0  0  0  0  0  0  0  0  0  0
   -5.6252   -4.2913    1.3462 H   0  0  0  0  0  0  0  0  0  0  0  0
   -7.9308   -5.0362    0.8444 H   0  0  0  0  0  0  0  0  0  0  0  0
   -7.6518   -7.8589    4.0115 H   0  0  0  0  0  0  0  0  0  0  0  0
   -5.3367   -7.0826    4.4852 H   0  0  0  0  0  0  0  0  0  0  0  0
  -11.2873   -8.6472    1.6099 H   0  0  0  0  0  0  0  0  0  0  0  0
  -11.9396   -6.4506    2.5923 H   0  0  0  0  0  0  0  0  0  0  0  0
  -11.8039   -7.0794    4.2363 H   0  0  0  0  0  0  0  0  0  0  0  0
  -13.8652   -8.0381    2.0960 H   0  0  0  0  0  0  0  0  0  0  0  0
  -13.9070   -8.3627    3.9124 H   0  0  0  0  0  0  0  0  0  0  0  0
  -14.1652   -6.7463    3.2512 H   0  0  0  0  0  0  0  0  0  0  0  0
  -11.0020   -9.6020    4.5335 H   0  0  0  0  0  0  0  0  0  0  0  0
  -10.4061  -10.4352    3.0953 H   0  0  0  0  0  0  0  0  0  0  0  0
  -13.2200  -10.2212    2.5926 H   0  0  0  0  0  0  0  0  0  0  0  0
  -13.0526  -10.4892    4.3556 H   0  0  0  0  0  0  0  0  0  0  0  0
  -12.2513  -11.6073    3.1691 H   0  0  0  0  0  0  0  0  0  0  0  0
  -10.2391   -5.3542    1.0901 H   0  0  0  0  0  0  0  0  0  0  0  0
  -10.5231   -6.9771    0.3304 H   0  0  0  0  0  0  0  0  0  0  0  0
    0.8296    1.5895    0.2593 H   0  0  0  0  0  0  0  0  0  0  0  0
    1.5374    0.3448   -0.8540 H   0  0  0  0  0  0  0  0  0  0  0  0
  1  2  1  0
  2  3  1  0
  3  4  1  0
  4  5  1  0
  3  6  1  0
  6  7  2  3
  7  8  1  0
  8  9  2  0
  9 10  1  0
 10 11  2  0
 11 12  1  0
 12 13  2  0
 11 14  1  0
 14 15  2  0
 15 16  1  0
 16 17  2  0
 17 18  1  0
 17 19  1  0
 19 20  2  0
 20 21  1  0
 21 22  2  0
 22 23  1  0
 23 24  2  0
 22 25  1  0
 25 26  2  3
 26 27  1  0
 27 28  1  0
 28 29  1  0
 27 30  1  0
 30 31  1  0
 25 32  1  0
  7 33  1  0
 13  8  1  0
 18 14  1  0
 24 19  1  0
  1 34  1  0
  1 35  1  0
  1 36  1  0
  2 37  1  0
  2 38  1  0
  3 39  1  0
  4 40  1  0
  4 41  1  0
  5 42  1  0
  5 43  1  0
  5 44  1  0
  9 45  1  0
 10 46  1  0
 12 47  1  0
 13 48  1  0
 15 49  1  0
 16 50  1  0
 20 51  1  0
 21 52  1  0
 23 53  1  0
 24 54  1  0
 27 55  1  0
 28 56  1  0
 28 57  1  0
 29 58  1  0
 29 59  1  0
 29 60  1  0
 30 61  1  0
 30 62  1  0
 31 63  1  0
 31 64  1  0
 31 65  1  0
 32 66  1  0
 32 67  1  0
 33 68  1  0
 33 69  1  0
M  END
$$$$
tar019
     RDKit          3D

 65 69  0  0  0  0  0  0  0  0999 V2000
   -5.0887    4.3867   -6.4206 C   0  0  0  0  0  0  0  0  0  0  0  0
   -4.6190    5.0338   -5.1338 C   0  0  0  0  0  0  0  0  0  0  0  0
   -5.0104    4.1089   -4.0223 C   0  0  0  0  0  0  0  0  0  0  0  0
   -5.0005    2.7562   -4.7232 C   0  0  0  0  0  0  0  0  0  0  0  0
   -5.8280    3.1193   -5.9924 C   0  0  0  0  0  0  0  0  0  0  0  0
   -5.5531    1.7225   -4.0141 N   0  0  0  0  0  0  0  0  0  0  0  0
   -5.4310    0.8681   -3.1528 C   0  0  0  0  0  0  0  0  0  0  0  0
   -4.2918    0.5615   -2.3228 C   0  0  0  0  0  0  0  0  0  0  0  0
   -4.3406   -0.4702   -1.3764 C   0  0  0  0  0  0  0  0  0  0  0  0
   -3.2620   -0.7681   -0.5832 C   0  0  0  0  0  0  0  0  0  0  0  0
   -2.0815   -0.0628   -0.6844 C   0  0  0  0  0  0  0  0  0  0  0  0
   -2.0532    0.9443   -1.6174 C   0  0  0  0  0  0  0  0  0  0  0  0
   -3.1291    1.2731   -2.4383 C   0  0  0  0  0  0  0  0  0  0  0  0
   -0.9151   -0.3700    0.1590 C   0  0  0  0  0  0  0  0  0  0  0  0
    0.2762    0.3194    0.0785 C   0  0  0  0  0  0  0  0  0  0  0  0
    1.1102   -0.2521    1.0119 C   0  0  0  0  0  0  0  0  0  0  0  0
    0.4028   -1.2626    1.6243 C   0  0  0  0  0  0  0  0  0  0  0  0
   -0.7829   -1.2758    1.0725 O   0  0  0  0  0  0  0  0  0  0  0  0
    0.9025   -2.1503    2.6955 C   0  0  0  0  0  0  0  0  0  0  0  0
    2.1837   -2.0169    3.1802 C   0  0  0  0  0  0  0  0  0  0  0  0
    2.6772   -2.8376    4.1854 C   0  0  0  0  0  0  0  0  0  0  0  0
    1.8820   -3.8214    4.7303 C   0  0  0  0  0  0  0  0  0  0  0  0
    0.6016   -3.9597    4.2506 C   0  0  0  0  0  0  0  0  0  0  0  0
    0.1150   -3.1353    3.2452 C   0  0  0  0  0  0  0  0  0  0  0  0
    2.3838   -4.7141    5.8069 C   0  0  0  0  0  0  0  0  0  0  0  0
    3.5526   -4.6049    6.2606 N   0  0  0  0  0  0  0  0  0  0  0  0
    4.2633   -5.3020    7.2531 C   0  0  0  0  0  0  0  0  0  0  0  0
    3.5281   -6.4231    7.9434 C   0  0  0  0  0  0  0  0  0  0  0  0
    4.6559   -7.0750    8.7334 C   0  0  0  0  0  0  0  0  0  0  0  0
    5.9243   -6.8012    7.9660 C   0  0  0  0  0  0  0  0  0  0  0  0
    5.4890   -6.0310    6.7288 C   0  0  0  0  0  0  0  0  0  0  0  0
    1.4817   -5.6965    6.2994 N   0  0  0  0  0  0  0  0  0  0  0  0
   -6.6057    0.0263   -2.9200 N   0  0  0  0  0  0  0  0  0  0  0  0
   -4.1966    4.0517   -7.0099 H   0  0  0  0  0  0  0  0  0  0  0  0
   -5.7087    5.0542   -7.0201 H   0  0  0  0  0  0  0  0  0  0  0  0
   -3.5387    5.2364   -5.1458 H   0  0  0  0  0  0  0  0  0  0  0  0
   -5.1358    6.0074   -4.9552 H   0  0  0  0  0  0  0  0  0  0  0  0
   -4.2892    4.0603   -3.1907 H   0  0  0  0  0  0  0  0  0  0  0  0
   -6.0162    4.3365   -3.6112 H   0  0  0  0  0  0  0  0  0  0  0  0
   -3.9732    2.6376   -5.1537 H   0  0  0  0  0  0  0  0  0  0  0  0
   -5.6330    2.3146   -6.7089 H   0  0  0  0  0  0  0  0  0  0  0  0
   -6.8711    3.2977   -5.7396 H   0  0  0  0  0  0  0  0  0  0  0  0
   -5.2455   -1.0285   -1.2823 H   0  0  0  0  0  0  0  0  0  0  0  0
   -3.3044   -1.5629    0.1435 H   0  0  0  0  0  0  0  0  0  0  0  0
   -1.1465    1.5142   -1.7216 H   0  0  0  0  0  0  0  0  0  0  0  0
   -3.0195    2.0783   -3.1428 H   0  0  0  0  0  0  0  0  0  0  0  0
    0.5426    1.1460   -0.5709 H   0  0  0  0  0  0  0  0  0  0  0  0
    2.1440    0.0187    1.2496 H   0  0  0  0  0  0  0  0  0  0  0  0
    2.8168   -1.2418    2.7540 H   0  0  0  0  0  0  0  0  0  0  0  0
    3.6853   -2.7078    4.5434 H   0  0  0  0  0  0  0  0  0  0  0  0
   -0.0306   -4.7455    4.6873 H   0  0  0  0  0  0  0  0  0  0  0  0
   -0.8963   -3.2680    2.8884 H   0  0  0  0  0  0  0  0  0  0  0  0
    4.6097   -4.6108    8.0853 H   0  0  0  0  0  0  0  0  0  0  0  0
    2.7556   -6.0219    8.6379 H   0  0  0  0  0  0  0  0  0  0  0  0
    3.1567   -7.1203    7.1959 H   0  0  0  0  0  0  0  0  0  0  0  0
    4.5183   -8.1822    8.8060 H   0  0  0  0  0  0  0  0  0  0  0  0
    4.7326   -6.5924    9.7224 H   0  0  0  0  0  0  0  0  0  0  0  0
    6.4715   -7.7247    7.6865 H   0  0  0  0  0  0  0  0  0  0  0  0
    6.6250   -6.1458    8.5242 H   0  0  0  0  0  0  0  0  0  0  0  0
    5.1796   -6.7609    5.9804 H   0  0  0  0  0  0  0  0  0  0  0  0
    6.2680   -5.3199    6.3830 H   0  0  0  0  0  0  0  0  0  0  0  0
    0.9347   -5.5863    7.1752 H   0  0  0  0  0  0  0  0  0  0  0  0
    1.3132   -6.6122    5.7840 H   0  0  0  0  0  0  0  0  0  0  0  0
   -6.4982   -1.0023   -2.9284 H   0  0  0  0  0  0  0  0  0  0  0  0
   -7.5081    0.4828   -2.7541 H   0  0  0  0  0  0  0  0  0  0  0  0
  1  2  1  0
  2  3  1  0
  3  4  1  0
  4  5  1  0
  4  6  1  0
  6  7  2  3
  7  8  1  0
  8  9  2  0
  9 10  1  0
 10 11  2  0
 11 12  1  0
 12 13  2  0
 11 14  1  0
 14 15  2  0
 15 16  1  0
 16 17  2  0
 17 18  1  0
 17 19  1  0
 19 20  2  0
 20 21  1  0
 21 22  2  0
 22 23  1  0
 23 24  2  0
 22 25  1  0
 25 26  2  3
 26 27  1  0
 27 28  1  0
 28 29  1  0
 29 30  1  0
 30 31  1  0
 25 32  1  0
  7 33  1  0
  5  1  1  0
 13  8  1  0
 18 14  1  0
 24 19  1  0
 31 27  1  0
  1 34  1  0
  1 35  1  0
  2 36  1  0
  2 37  1  0
  3 38  1  0
  3 39  1  0
  4 40  1  0
  5 41  1  0
  5 42  1  0
  9 43  1  0
 10 44  1  0
 12 45  1  0
 13 46  1  0
 15 47  1  0
 16 48  1  0
 20 49  1  0
 21 50  1  0
 23 51  1  0
 24 52  1  0
 27 53  1  0
 28 54  1  0
 28 55  1  0
 29 56  1  0
 29 57  1  0
 30 58  1  0
 30 59  1  0
 31 60  1  0
 31 61  1  0
 32 62  1  0
 32 63  1  0
 33 64  1  0
 33 65  1  0
M  END
$$$$
tar020
     RDKit          3D

 49 52  0  0  0  0  0  0  0  0999 V2000
    7.0417    2.9088   -0.9999 C   0  0  0  0  0  0  0  0  0  0  0  0
    5.6914    2.3786   -1.0590 N   0  0  0  0  0  0  0  0  0  0  0  0
    4.7790    3.1786   -0.2558 C   0  0  0  0  0  0  0  0  0  0  0  0
    4.9270    2.6201    1.1436 C   0  0  0  0  0  0  0  0  0  0  0  0
    4.1838    1.3413    1.2610 N   0  0  0  0  0  0  0  0  0  0  0  0
    4.4278    0.5579    0.0757 C   0  0  0  0  0  0  0  0  0  0  0  0
    5.6293    0.9899   -0.7333 C   0  0  0  0  0  0  0  0  0  0  0  0
    2.8130    1.7086    1.4232 C   0  0  0  0  0  0  0  0  0  0  0  0
    1.8206    0.6980    1.8703 C   0  0  0  0  0  0  0  0  0  0  0  0
    1.6090   -0.4847    0.9843 C   0  0  0  0  0  0  0  0  0  0  0  0
    0.6011   -1.3734    1.5728 N   0  0  0  0  0  0  0  0  0  0  0  0
    1.0081   -2.2248    2.6396 C   0  0  0  0  0  0  0  0  0  0  0  0
    2.3285   -2.2066    3.0744 C   0  0  0  0  0  0  0  0  0  0  0  0
    2.7591   -3.0258    4.1159 C   0  0  0  0  0  0  0  0  0  0  0  0
    1.9129   -3.8909    4.7662 C   0  0  0  0  0  0  0  0  0  0  0  0
    0.6136   -3.9056    4.3335 C   0  0  0  0  0  0  0  0  0  0  0  0
    0.1864   -3.0991    3.3083 C   0  0  0  0  0  0  0  0  0  0  0  0
   -1.5183   -3.2106    2.8190 S   0  0  0  0  0  0  0  0  0  0  0  0
   -1.7779   -2.0611    1.4990 C   0  0  0  0  0  0  0  0  0  0  0  0
   -0.7135   -1.2966    1.0376 C   0  0  0  0  0  0  0  0  0  0  0  0
   -1.0337   -0.4276    0.0129 C   0  0  0  0  0  0  0  0  0  0  0  0
   -2.2955   -0.3079   -0.5278 C   0  0  0  0  0  0  0  0  0  0  0  0
   -3.3372   -1.0740   -0.0584 C   0  0  0  0  0  0  0  0  0  0  0  0
   -3.0337   -1.9411    0.9597 C   0  0  0  0  0  0  0  0  0  0  0  0
   -2.6333    0.8153   -1.8244 Cl  0  0  0  0  0  0  0  0  0  0  0  0
    7.5211    2.3826   -0.1251 H   0  0  0  0  0  0  0  0  0  0  0  0
    7.6333    2.7393   -1.9091 H   0  0  0  0  0  0  0  0  0  0  0  0
    6.9690    3.9718   -0.6941 H   0  0  0  0  0  0  0  0  0  0  0  0
    5.1863    4.2119   -0.2230 H   0  0  0  0  0  0  0  0  0  0  0  0
    3.7583    3.1613   -0.6524 H   0  0  0  0  0  0  0  0  0  0  0  0
    5.9977    2.3977    1.2985 H   0  0  0  0  0  0  0  0  0  0  0  0
    4.5843    3.3036    1.9203 H   0  0  0  0  0  0  0  0  0  0  0  0
    3.5557    0.4747   -0.5717 H   0  0  0  0  0  0  0  0  0  0  0  0
    4.6998   -0.4715    0.4260 H   0  0  0  0  0  0  0  0  0  0  0  0
    5.5867    0.3988   -1.6767 H   0  0  0  0  0  0  0  0  0  0  0  0
    6.5447    0.7021   -0.1857 H   0  0  0  0  0  0  0  0  0  0  0  0
    2.4065    2.1344    0.4367 H   0  0  0  0  0  0  0  0  0  0  0  0
    2.7676    2.6403    2.0763 H   0  0  0  0  0  0  0  0  0  0  0  0
    0.8437    1.2872    1.9697 H   0  0  0  0  0  0  0  0  0  0  0  0
    1.9911    0.4168    2.9617 H   0  0  0  0  0  0  0  0  0  0  0  0
    1.3808   -0.1657   -0.0285 H   0  0  0  0  0  0  0  0  0  0  0  0
    2.5879   -1.0296    0.9320 H   0  0  0  0  0  0  0  0  0  0  0  0
    3.0617   -1.5640    2.6189 H   0  0  0  0  0  0  0  0  0  0  0  0
    3.7884   -2.9993    4.4424 H   0  0  0  0  0  0  0  0  0  0  0  0
    2.2296   -4.5330    5.5767 H   0  0  0  0  0  0  0  0  0  0  0  0
   -0.0685   -4.5995    4.8508 H   0  0  0  0  0  0  0  0  0  0  0  0
   -0.2965    0.2182   -0.4085 H   0  0  0  0  0  0  0  0  0  0  0  0
   -4.3354   -0.9854   -0.4791 H   0  0  0  0  0  0  0  0  0  0  0  0
   -3.8364   -2.5635    1.3579 H   0  0  0  0  0  0  0  0  0  0  0  0
  1  2  1  0
  2  3  1  0
  3  4  1  0
  4  5  1  0
  5  6  1  0
  6  7  1  0
  5  8  1  0
  8  9  1  0
  9 10  1  0
 10 11  1  0
 11 12  1  0
 12 13  2  0
 13 14  1  0
 14 15  2  0
 15 16  1  0
 16 17  2  0
 17 18  1  0
 18 19  1  0
 19 20  2  0
 20 21  1  0
 21 22  2  0
 22 23  1  0
 23 24  2  0
 22 25  1  0
  7  2  1  0
 20 11  1  0
 17 12  1  0
 24 19  1  0
  1 26  1  0
  1 27  1  0
  1 28  1  0
  3 29  1  0
  3 30  1  0
  4 31  1  0
  4 32  1  0
  6 33  1  0
  6 34  1  0
  7 35  1  0
  7 36  1  0
  8 37  1  0
  8 38  1  0
  9 39  1  0
  9 40  1  0
 10 41  1  0
 10 42  1  0
 13 43  1  0
 14 44  1  0
 15 45  1  0
 16 46  1  0
 21 47  1  0
 23 48  1  0
 24 49  1  0
M  END
$$$$
tar021
     RDKit          3D

 43 44  0  0  0  0  0  0  0  0999 V2000
    2.1777   -2.0525    3.6403 C   0  0  0  0  0  0  0  0  0  0  0  0
    0.9401   -2.1154    2.8922 N   0  0  0  0  0  0  0  0  0  0  0  0
    0.8137   -1.3671    1.7791 C   0  0  0  0  0  0  0  0  0  0  0  0
   -0.3679   -1.4007    1.0289 C   0  0  0  0  0  0  0  0  0  0  0  0
   -1.3667   -2.2304    1.4937 C   0  0  0  0  0  0  0  0  0  0  0  0
   -2.4398   -2.2711    0.8209 O   0  0  0  0  0  0  0  0  0  0  0  0
   -1.2343   -2.9755    2.6067 N   0  0  0  0  0  0  0  0  0  0  0  0
   -0.0822   -2.8992    3.2794 C   0  0  0  0  0  0  0  0  0  0  0  0
    0.0753   -3.5813    4.3230 O   0  0  0  0  0  0  0  0  0  0  0  0
   -2.3424   -3.8354    3.0402 C   0  0  0  0  0  0  0  0  0  0  0  0
   -0.1793   -0.5668   -0.0005 N   0  0  0  0  0  0  0  0  0  0  0  0
    1.0755   -0.0315    0.1001 C   0  0  0  0  0  0  0  0  0  0  0  0
    1.6785   -0.5242    1.1905 N   0  0  0  0  0  0  0  0  0  0  0  0
   -1.1600   -0.2751   -1.0132 C   0  0  0  0  0  0  0  0  0  0  0  0
   -1.9190    0.9651   -0.6050 C   0  0  0  0  0  0  0  0  0  0  0  0
   -2.9403    1.2430   -1.6777 C   0  0  0  0  0  0  0  0  0  0  0  0
   -3.7566    2.3937   -1.3895 N   0  0  0  0  0  0  0  0  0  0  0  0
   -4.7076    2.6073   -2.4462 C   0  0  0  0  0  0  0  0  0  0  0  0
   -3.0129    3.5755   -1.1099 C   0  0  0  0  0  0  0  0  0  0  0  0
   -3.8838    4.7687   -0.8107 C   0  0  0  0  0  0  0  0  0  0  0  0
   -4.7002    4.5659    0.2880 O   0  0  0  0  0  0  0  0  0  0  0  0
   -2.5669    0.7376    0.5802 O   0  0  0  0  0  0  0  0  0  0  0  0
    3.0073   -2.5725    3.1195 H   0  0  0  0  0  0  0  0  0  0  0  0
    2.5153   -1.0300    3.8413 H   0  0  0  0  0  0  0  0  0  0  0  0
    1.9930   -2.5393    4.6202 H   0  0  0  0  0  0  0  0  0  0  0  0
   -2.5645   -4.5799    2.2318 H   0  0  0  0  0  0  0  0  0  0  0  0
   -2.0359   -4.4016    3.9213 H   0  0  0  0  0  0  0  0  0  0  0  0
   -3.2612   -3.2369    3.1770 H   0  0  0  0  0  0  0  0  0  0  0  0
    1.4361    0.6721   -0.6350 H   0  0  0  0  0  0  0  0  0  0  0  0
   -1.9090   -1.0947   -1.1224 H   0  0  0  0  0  0  0  0  0  0  0  0
   -0.6999   -0.1662   -2.0200 H   0  0  0  0  0  0  0  0  0  0  0  0
   -1.1493    1.7661   -0.5416 H   0  0  0  0  0  0  0  0  0  0  0  0
   -3.5343    0.3197   -1.8050 H   0  0  0  0  0  0  0  0  0  0  0  0
   -2.4151    1.4308   -2.6355 H   0  0  0  0  0  0  0  0  0  0  0  0
   -4.1943    3.1413   -3.2648 H   0  0  0  0  0  0  0  0  0  0  0  0
   -5.5158    3.2491   -2.0619 H   0  0  0  0  0  0  0  0  0  0  0  0
   -5.1514    1.6432   -2.7687 H   0  0  0  0  0  0  0  0  0  0  0  0
   -2.4380    3.8410   -2.0455 H   0  0  0  0  0  0  0  0  0  0  0  0
   -2.2743    3.4890   -0.3173 H   0  0  0  0  0  0  0  0  0  0  0  0
   -4.5588    5.0103   -1.6780 H   0  0  0  0  0  0  0  0  0  0  0  0
   -3.2833    5.6782   -0.6091 H   0  0  0  0  0  0  0  0  0  0  0  0
   -4.4225    3.7276    0.7311 H   0  0  0  0  0  0  0  0  0  0  0  0
   -3.4314    0.2873    0.3739 H   0  0  0  0  0  0  0  0  0  0  0  0
  1  2  1  0
  2  3  1  0
  3  4  2  0
  4  5  1  0
  5  6  2  0
  5  7  1  0
  7  8  1  0
  8  9  2  0
  7 10  1  0
  4 11  1  0
 11 12  1  0
 12 13  2  0
 11 14  1  0
 14 15  1  0
 15 16  1  0
 16 17  1  0
 17 18  1  0
 17 19  1  0
 19 20  1  0
 20 21  1  0
 15 22  1  0
  8  2  1  0
 13  3  1  0
  1 23  1  0
  1 24  1  0
  1 25  1  0
 10 26  1  0
 10 27  1  0
 10 28  1  0
 12 29  1  0
 14 30  1  0
 14 31  1  0
 15 32  1  0
 16 33  1  0
 16 34  1  0
 18 35  1  0
 18 36  1  0
 18 37  1  0
 19 38  1  0
 19 39  1  0
 20 40  1  0
 20 41  1  0
 21 42  1  0
 22 43  1  0
M  END
$$$$
tar022
     RDKit          3D

 40 42  0  0  0  0  0  0  0  0999 V2000
    5.6147    1.0629   -1.2515 C   0  0  0  0  0  0  0  0  0  0  0  0
    4.4711    0.1583   -1.2893 N   0  0  0  0  0  0  0  0  0  0  0  0
    3.7151    0.3532   -2.5227 C   0  0  0  0  0  0  0  0  0  0  0  0
    3.6496    0.3182   -0.1200 C   0  0  0  0  0  0  0  0  0  0  0  0
    2.5624   -0.7022    0.0545 C   0  0  0  0  0  0  0  0  0  0  0  0
    1.8403   -0.3371    1.3322 C   0  0  0  0  0  0  0  0  0  0  0  0
    0.7774   -1.2379    1.7078 N   0  0  0  0  0  0  0  0  0  0  0  0
   -0.4782   -1.1824    1.0261 C   0  0  0  0  0  0  0  0  0  0  0  0
   -0.6511   -0.2228    0.0491 C   0  0  0  0  0  0  0  0  0  0  0  0
   -1.8290   -0.0495   -0.6611 C   0  0  0  0  0  0  0  0  0  0  0  0
   -2.8721   -0.8976   -0.3548 C   0  0  0  0  0  0  0  0  0  0  0  0
   -2.7324   -1.8626    0.6109 C   0  0  0  0  0  0  0  0  0  0  0  0
   -1.5467   -1.9900    1.2822 C   0  0  0  0  0  0  0  0  0  0  0  0
   -1.4664   -3.2685    2.5183 S   0  0  0  0  0  0  0  0  0  0  0  0
    0.1669   -3.1103    3.2391 C   0  0  0  0  0  0  0  0  0  0  0  0
    1.0566   -2.1759    2.7677 C   0  0  0  0  0  0  0  0  0  0  0  0
    2.2897   -2.1639    3.3948 C   0  0  0  0  0  0  0  0  0  0  0  0
    2.6022   -3.0446    4.4392 C   0  0  0  0  0  0  0  0  0  0  0  0
    1.6610   -3.9600    4.8662 C   0  0  0  0  0  0  0  0  0  0  0  0
    0.4304   -3.9921    4.2582 C   0  0  0  0  0  0  0  0  0  0  0  0
    4.1779   -2.9783    5.2005 Cl  0  0  0  0  0  0  0  0  0  0  0  0
    5.9754    1.0855   -0.2004 H   0  0  0  0  0  0  0  0  0  0  0  0
    6.4346    0.7861   -1.9062 H   0  0  0  0  0  0  0  0  0  0  0  0
    5.2281    2.0784   -1.4744 H   0  0  0  0  0  0  0  0  0  0  0  0
    2.8006    0.8951   -2.2786 H   0  0  0  0  0  0  0  0  0  0  0  0
    4.3217    1.0845   -3.1432 H   0  0  0  0  0  0  0  0  0  0  0  0
    3.6281   -0.5565   -3.1082 H   0  0  0  0  0  0  0  0  0  0  0  0
    3.2457    1.3567   -0.1634 H   0  0  0  0  0  0  0  0  0  0  0  0
    4.3139    0.2822    0.7602 H   0  0  0  0  0  0  0  0  0  0  0  0
    1.9206   -0.8568   -0.8214 H   0  0  0  0  0  0  0  0  0  0  0  0
    3.0489   -1.7215    0.1996 H   0  0  0  0  0  0  0  0  0  0  0  0
    1.4346    0.7018    1.1271 H   0  0  0  0  0  0  0  0  0  0  0  0
    2.5803   -0.1317    2.1225 H   0  0  0  0  0  0  0  0  0  0  0  0
    0.1309    0.4773   -0.2270 H   0  0  0  0  0  0  0  0  0  0  0  0
   -1.9203    0.7230   -1.4210 H   0  0  0  0  0  0  0  0  0  0  0  0
   -3.8241   -0.8230   -0.8669 H   0  0  0  0  0  0  0  0  0  0  0  0
   -3.5922   -2.5338    0.8348 H   0  0  0  0  0  0  0  0  0  0  0  0
    3.0883   -1.4888    3.1121 H   0  0  0  0  0  0  0  0  0  0  0  0
    1.8654   -4.6540    5.6693 H   0  0  0  0  0  0  0  0  0  0  0  0
   -0.3032   -4.7047    4.5878 H   0  0  0  0  0  0  0  0  0  0  0  0
  1  2  1  0
  2  3  1  0
  2  4  1  0
  4  5  1  0
  5  6  1  0
  6  7  1  0
  7  8  1  0
  8  9  2  0
  9 10  1  0
 10 11  2  0
 11 12  1  0
 12 13  2  0
 13 14  1  0
 14 15  1  0
 15 16  2  0
 16 17  1  0
 17 18  2  0
 18 19  1  0
 19 20  2  0
 18 21  1  0
 16  7  1  0
 13  8  1  0
 20 15  1  0
  1 22  1  0
  1 23  1  0
  1 24  1  0
  3 25  1  0
  3 26  1  0
  3 27  1  0
  4 28  1  0
  4 29  1  0
  5 30  1  0
  5 31  1  0
  6 32  1  0
  6 33  1  0
  9 34  1  0
 10 35  1  0
 11 36  1  0
 12 37  1  0
 17 38  1  0
 19 39  1  0
 20 40  1  0
M  END
$$$$
tar023
     RDKit          3D

 45 47  0  0  0  0  0  0  0  0999 V2000
   -1.1574    1.6892   -2.0880 C   0  0  0  0  0  0  0  0  0  0  0  0
   -2.2359    0.7665   -1.6816 C   0  0  0  0  0  0  0  0  0  0  0  0
   -3.3398    0.8117   -2.2553 O   0  0  0  0  0  0  0  0  0  0  0  0
   -2.0281   -0.2037   -0.6126 C   0  0  0  0  0  0  0  0  0  0  0  0
   -0.8233   -0.2915    0.0590 C   0  0  0  0  0  0  0  0  0  0  0  0
   -0.5869   -1.2133    1.0897 C   0  0  0  0  0  0  0  0  0  0  0  0
   -1.6260   -2.0416    1.4066 C   0  0  0  0  0  0  0  0  0  0  0  0
   -2.8057   -1.9725    0.7654 C   0  0  0  0  0  0  0  0  0  0  0  0
   -3.0436   -1.0564   -0.2589 C   0  0  0  0  0  0  0  0  0  0  0  0
   -1.4501   -3.2587    2.6783 S   0  0  0  0  0  0  0  0  0  0  0  0
    0.2208   -3.1123    3.2716 C   0  0  0  0  0  0  0  0  0  0  0  0
    0.6002   -3.9577    4.2440 C   0  0  0  0  0  0  0  0  0  0  0  0
    1.8685   -3.9455    4.8062 C   0  0  0  0  0  0  0  0  0  0  0  0
    2.7367   -3.0050    4.3084 C   0  0  0  0  0  0  0  0  0  0  0  0
    2.3529   -2.1259    3.3021 C   0  0  0  0  0  0  0  0  0  0  0  0
    1.0634   -2.1650    2.7551 C   0  0  0  0  0  0  0  0  0  0  0  0
    0.6959   -1.2542    1.7184 N   0  0  0  0  0  0  0  0  0  0  0  0
    1.6853   -0.2872    1.2360 C   0  0  0  0  0  0  0  0  0  0  0  0
    2.6400   -0.8689    0.2285 C   0  0  0  0  0  0  0  0  0  0  0  0
    3.5942    0.2411   -0.1433 C   0  0  0  0  0  0  0  0  0  0  0  0
    4.5845   -0.1295   -1.1120 N   0  0  0  0  0  0  0  0  0  0  0  0
    4.0383   -0.3733   -2.4260 C   0  0  0  0  0  0  0  0  0  0  0  0
    5.4016   -1.2470   -0.6819 C   0  0  0  0  0  0  0  0  0  0  0  0
   -1.5256    2.5276   -2.7093 H   0  0  0  0  0  0  0  0  0  0  0  0
   -0.6691    2.1582   -1.1935 H   0  0  0  0  0  0  0  0  0  0  0  0
   -0.3776    1.1755   -2.6953 H   0  0  0  0  0  0  0  0  0  0  0  0
   -0.0534    0.3890   -0.2695 H   0  0  0  0  0  0  0  0  0  0  0  0
   -3.6348   -2.6397    1.0259 H   0  0  0  0  0  0  0  0  0  0  0  0
   -3.9728   -0.9928   -0.7727 H   0  0  0  0  0  0  0  0  0  0  0  0
   -0.0623   -4.7318    4.6768 H   0  0  0  0  0  0  0  0  0  0  0  0
    2.1573   -4.6318    5.5868 H   0  0  0  0  0  0  0  0  0  0  0  0
    3.7349   -2.9646    4.7227 H   0  0  0  0  0  0  0  0  0  0  0  0
    3.0706   -1.4108    2.9562 H   0  0  0  0  0  0  0  0  0  0  0  0
    2.3382    0.0212    2.1189 H   0  0  0  0  0  0  0  0  0  0  0  0
    1.2415    0.6767    0.9165 H   0  0  0  0  0  0  0  0  0  0  0  0
    2.1022   -1.2633   -0.6686 H   0  0  0  0  0  0  0  0  0  0  0  0
    3.2205   -1.6746    0.6962 H   0  0  0  0  0  0  0  0  0  0  0  0
    4.0956    0.5818    0.7779 H   0  0  0  0  0  0  0  0  0  0  0  0
    2.9992    1.0668   -0.5583 H   0  0  0  0  0  0  0  0  0  0  0  0
    4.8005   -0.9722   -2.9873 H   0  0  0  0  0  0  0  0  0  0  0  0
    3.1141   -0.9467   -2.3895 H   0  0  0  0  0  0  0  0  0  0  0  0
    3.9276    0.5761   -3.0059 H   0  0  0  0  0  0  0  0  0  0  0  0
    5.8976   -1.0799    0.2703 H   0  0  0  0  0  0  0  0  0  0  0  0
    6.1793   -1.3934   -1.4596 H   0  0  0  0  0  0  0  0  0  0  0  0
    4.7855   -2.1805   -0.7046 H   0  0  0  0  0  0  0  0  0  0  0  0
  1  2  1  0
  2  3  2  0
  2  4  1  0
  4  5  2  0
  5  6  1  0
  6  7  2  0
  7  8  1  0
  8  9  2  0
  7 10  1  0
 10 11  1  0
 11 12  2  0
 12 13  1  0
 13 14  2  0
 14 15  1  0
 15 16  2  0
 16 17  1  0
 17 18  1  0
 18 19  1  0
 19 20  1  0
 20 21  1  0
 21 22  1  0
 21 23  1  0
  9  4  1  0
 17  6  1  0
 16 11  1  0
  1 24  1  0
  1 25  1  0
  1 26  1  0
  5 27  1  0
  8 28  1  0
  9 29  1  0
 12 30  1  0
 13 31  1  0
 14 32  1  0
 15 33  1  0
 18 34  1  0
 18 35  1  0
 19 36  1  0
 19 37  1  0
 20 38  1  0
 20 39  1  0
 22 40  1  0
 22 41  1  0
 22 42  1  0
 23 43  1  0
 23 44  1  0
 23 45  1  0
M  END
$$$$
tar024
     RDKit          3D

 38 41  0  0  0  0  0  0  0  0999 V2000
   -1.6192   -4.9597    4.1791 C   0  0  0  0  0  0  0  0  0  0  0  0
   -1.6796   -4.9266    2.8050 C   0  0  0  0  0  0  0  0  0  0  0  0
   -0.8224   -4.1743    2.0330 C   0  0  0  0  0  0  0  0  0  0  0  0
    0.1385   -3.4246    2.7178 C   0  0  0  0  0  0  0  0  0  0  0  0
    0.2223   -3.4388    4.0933 C   0  0  0  0  0  0  0  0  0  0  0  0
   -0.6646   -4.2133    4.8313 C   0  0  0  0  0  0  0  0  0  0  0  0
    1.3088   -2.5763    4.5402 C   0  0  0  0  0  0  0  0  0  0  0  0
    1.6924   -2.3322    5.7049 O   0  0  0  0  0  0  0  0  0  0  0  0
    1.8574   -2.0582    3.3875 O   0  0  0  0  0  0  0  0  0  0  0  0
    1.1922   -2.5241    2.2265 C   0  0  0  0  0  0  0  0  0  0  0  0
    2.1632   -3.2878    1.3961 C   0  0  0  0  0  0  0  0  0  0  0  0
    3.4128   -3.6189    1.9358 C   0  0  0  0  0  0  0  0  0  0  0  0
    4.3399   -4.3104    1.2249 C   0  0  0  0  0  0  0  0  0  0  0  0
    4.1015   -4.7220   -0.0618 C   0  0  0  0  0  0  0  0  0  0  0  0
    2.8726   -4.4036   -0.6108 C   0  0  0  0  0  0  0  0  0  0  0  0
    1.9358   -3.6997    0.1204 C   0  0  0  0  0  0  0  0  0  0  0  0
    5.0606   -5.4282   -0.7745 O   0  0  0  0  0  0  0  0  0  0  0  0
    0.6797   -1.3391    1.4844 C   0  0  0  0  0  0  0  0  0  0  0  0
   -0.6154   -1.1247    1.1324 C   0  0  0  0  0  0  0  0  0  0  0  0
   -0.9447    0.0375    0.4356 C   0  0  0  0  0  0  0  0  0  0  0  0
    0.0124    0.9775    0.0937 C   0  0  0  0  0  0  0  0  0  0  0  0
    1.3194    0.7524    0.4537 C   0  0  0  0  0  0  0  0  0  0  0  0
    1.6378   -0.3925    1.1390 C   0  0  0  0  0  0  0  0  0  0  0  0
   -0.3358    2.1350   -0.6038 O   0  0  0  0  0  0  0  0  0  0  0  0
   -2.2922   -5.5499    4.7818 H   0  0  0  0  0  0  0  0  0  0  0  0
   -2.4452   -5.5260    2.2902 H   0  0  0  0  0  0  0  0  0  0  0  0
   -0.8744   -4.1524    0.9516 H   0  0  0  0  0  0  0  0  0  0  0  0
   -0.5666   -4.1981    5.9153 H   0  0  0  0  0  0  0  0  0  0  0  0
    3.6174   -3.2996    2.9558 H   0  0  0  0  0  0  0  0  0  0  0  0
    5.2835   -4.5353    1.6947 H   0  0  0  0  0  0  0  0  0  0  0  0
    2.6922   -4.7300   -1.6218 H   0  0  0  0  0  0  0  0  0  0  0  0
    1.0001   -3.4755   -0.3510 H   0  0  0  0  0  0  0  0  0  0  0  0
    5.0647   -6.4527   -0.7192 H   0  0  0  0  0  0  0  0  0  0  0  0
   -1.3496   -1.8535    1.4007 H   0  0  0  0  0  0  0  0  0  0  0  0
   -1.9740    0.2176    0.1504 H   0  0  0  0  0  0  0  0  0  0  0  0
    2.0660    1.4897    0.1850 H   0  0  0  0  0  0  0  0  0  0  0  0
    2.6818   -0.5297    1.4033 H   0  0  0  0  0  0  0  0  0  0  0  0
   -0.5936    2.9497   -0.0490 H   0  0  0  0  0  0  0  0  0  0  0  0
  1  2  2  0
  2  3  1  0
  3  4  2  0
  4  5  1  0
  5  6  2  0
  5  7  1  0
  7  8  2  0
  7  9  1  0
  9 10  1  0
 10 11  1  0
 11 12  2  0
 12 13  1  0
 13 14  2  0
 14 15  1  0
 15 16  2  0
 14 17  1  0
 10 18  1  0
 18 19  2  0
 19 20  1  0
 20 21  2  0
 21 22  1  0
 22 23  2  0
 21 24  1  0
  6  1  1  0
 10  4  1  0
 16 11  1  0
 23 18  1  0
  1 25  1  0
  2 26  1  0
  3 27  1  0
  6 28  1  0
 12 29  1  0
 13 30  1  0
 15 31  1  0
 16 32  1  0
 17 33  1  0
 19 34  1  0
 20 35  1  0
 22 36  1  0
 23 37  1  0
 24 38  1  0
M  END
$$$$
tar025
     RDKit          3D

 36 40  0  0  0  0  0  0  0  0999 V2000
   -1.1953   -6.6932    5.9591 C   0  0  0  0  0  0  0  0  0  0  0  0
   -2.4581   -6.7452    5.4096 C   0  0  0  0  0  0  0  0  0  0  0  0
   -2.7433   -5.8308    4.4172 C   0  0  0  0  0  0  0  0  0  0  0  0
   -1.8137   -4.8959    3.9812 C   0  0  0  0  0  0  0  0  0  0  0  0
   -0.5553   -4.8635    4.5470 C   0  0  0  0  0  0  0  0  0  0  0  0
   -0.2564   -5.7682    5.5368 C   0  0  0  0  0  0  0  0  0  0  0  0
    0.3748   -3.9397    4.1217 C   0  0  0  0  0  0  0  0  0  0  0  0
    1.5145   -3.8744    4.6005 O   0  0  0  0  0  0  0  0  0  0  0  0
    0.0312   -3.0386    3.1140 C   0  0  0  0  0  0  0  0  0  0  0  0
    0.9390   -2.0944    2.6590 C   0  0  0  0  0  0  0  0  0  0  0  0
    0.6405   -1.1860    1.6660 C   0  0  0  0  0  0  0  0  0  0  0  0
   -0.6364   -1.2573    1.1279 C   0  0  0  0  0  0  0  0  0  0  0  0
   -1.5641   -2.1850    1.5580 C   0  0  0  0  0  0  0  0  0  0  0  0
   -1.2261   -3.0893    2.5659 C   0  0  0  0  0  0  0  0  0  0  0  0
   -2.0967   -4.0065    3.0133 N   0  0  0  0  0  0  0  0  0  0  0  0
   -0.9447   -0.3447    0.1262 C   0  0  0  0  0  0  0  0  0  0  0  0
   -2.0862   -0.3680   -0.3928 O   0  0  0  0  0  0  0  0  0  0  0  0
   -0.0325    0.5925   -0.3202 C   0  0  0  0  0  0  0  0  0  0  0  0
   -0.3201    1.5055   -1.3124 C   0  0  0  0  0  0  0  0  0  0  0  0
    0.5927    2.4401   -1.7561 C   0  0  0  0  0  0  0  0  0  0  0  0
    1.8440    2.4388   -1.1620 C   0  0  0  0  0  0  0  0  0  0  0  0
    2.1402    1.5332   -0.1727 C   0  0  0  0  0  0  0  0  0  0  0  0
    1.2282    0.5977    0.2723 C   0  0  0  0  0  0  0  0  0  0  0  0
    1.5451   -0.2838    1.2487 N   0  0  0  0  0  0  0  0  0  0  0  0
   -0.9225   -7.3969    6.7481 H   0  0  0  0  0  0  0  0  0  0  0  0
   -3.1711   -7.4811    5.7617 H   0  0  0  0  0  0  0  0  0  0  0  0
   -3.7431   -5.8560    3.9671 H   0  0  0  0  0  0  0  0  0  0  0  0
    0.7422   -5.7217    5.9664 H   0  0  0  0  0  0  0  0  0  0  0  0
    1.9107   -2.0839    3.1097 H   0  0  0  0  0  0  0  0  0  0  0  0
   -2.5574   -2.2348    1.1340 H   0  0  0  0  0  0  0  0  0  0  0  0
   -3.0563   -4.0403    2.5903 H   0  0  0  0  0  0  0  0  0  0  0  0
   -1.3154    1.4898   -1.7693 H   0  0  0  0  0  0  0  0  0  0  0  0
    0.3873    3.1570   -2.5254 H   0  0  0  0  0  0  0  0  0  0  0  0
    2.6227    3.1565   -1.4659 H   0  0  0  0  0  0  0  0  0  0  0  0
    3.1243    1.5065    0.3187 H   0  0  0  0  0  0  0  0  0  0  0  0
    2.5026   -0.2401    1.6615 H   0  0  0  0  0  0  0  0  0  0  0  0
  1  2  2  0
  2  3  1  0
  3  4  2  0
  4  5  1  0
  5  6  2  0
  5  7  1  0
  7  8  2  0
  7  9  1  0
  9 10  2  0
 10 11  1  0
 11 12  2  0
 12 13  1  0
 13 14  2  0
 14 15  1  0
 12 16  1  0
 16 17  2  0
 16 18  1  0
 18 19  2  0
 19 20  1  0
 20 21  2  0
 21 22  1  0
 22 23  2  0
 23 24  1  0
  6  1  1  0
 15  4  1  0
 14  9  1  0
 24 11  1  0
 23 18  1  0
  1 25  1  0
  2 26  1  0
  3 27  1  0
  6 28  1  0
 10 29  1  0
 13 30  1  0
 15 31  1  0
 19 32  1  0
 20 33  1  0
 21 34  1  0
 22 35  1  0
 24 36  1  0
M  END
$$$$
tar026
     RDKit          3D

 52 56  0  0  0  0  0  0  0  0999 V2000
   -0.3510   -5.2078    4.1305 C   0  0  0  0  0  0  0  0  0  0  0  0
    0.1351   -3.8812    4.1706 O   0  0  0  0  0  0  0  0  0  0  0  0
    0.1909   -3.1422    2.9956 C   0  0  0  0  0  0  0  0  0  0  0  0
   -0.2001   -3.6992    1.9377 O   0  0  0  0  0  0  0  0  0  0  0  0
    0.7010   -1.7270    2.9912 C   0  0  1  0  0  0  0  0  0  0  0  0
    2.1041   -1.7547    3.4844 C   0  0  2  0  0  0  0  0  0  0  0  0
    3.1151   -1.3783    2.4135 C   0  0  0  0  0  0  0  0  0  0  0  0
    2.7602    0.0136    1.9494 C   0  0  0  0  0  0  0  0  0  0  0  0
    1.4312   -0.0091    1.3068 C   0  0  2  0  0  0  0  0  0  0  0  0
    0.5840   -1.1993    1.6154 C   0  0  2  0  0  0  0  0  0  0  0  0
   -0.8256   -0.8296    1.2218 C   0  0  0  0  0  0  0  0  0  0  0  0
   -0.8192   -0.5497   -0.2709 C   0  0  1  0  0  0  0  0  0  0  0  0
   -2.1475   -0.0416   -0.7362 C   0  0  0  0  0  0  0  0  0  0  0  0
   -2.3910    1.3118   -0.8149 C   0  0  0  0  0  0  0  0  0  0  0  0
   -1.3008    2.2238   -0.4267 C   0  0  0  0  0  0  0  0  0  0  0  0
   -0.0124    1.6542   -0.8812 C   0  0  0  0  0  0  0  0  0  0  0  0
    0.2092    0.2883   -0.7149 N   0  0  0  0  0  0  0  0  0  0  0  0
    1.5154    0.0262   -0.2261 C   0  0  0  0  0  0  0  0  0  0  0  0
   -3.6808    1.5355   -1.2678 C   0  0  0  0  0  0  0  0  0  0  0  0
   -4.4197    2.6762   -1.5219 C   0  0  0  0  0  0  0  0  0  0  0  0
   -5.7139    2.5956   -1.9779 C   0  0  0  0  0  0  0  0  0  0  0  0
   -6.2541    1.3385   -2.1746 C   0  0  0  0  0  0  0  0  0  0  0  0
   -5.5168    0.2076   -1.9210 C   0  0  0  0  0  0  0  0  0  0  0  0
   -4.2115    0.2678   -1.4612 C   0  0  0  0  0  0  0  0  0  0  0  0
   -3.2811   -0.6417   -1.1384 N   0  0  0  0  0  0  0  0  0  0  0  0
    2.4842   -3.0112    3.9727 O   0  0  0  0  0  0  0  0  0  0  0  0
   -1.0169   -5.3639    5.0107 H   0  0  0  0  0  0  0  0  0  0  0  0
    0.4390   -5.9595    4.1319 H   0  0  0  0  0  0  0  0  0  0  0  0
   -0.9636   -5.3887    3.2062 H   0  0  0  0  0  0  0  0  0  0  0  0
    0.0636   -1.1881    3.7368 H   0  0  0  0  0  0  0  0  0  0  0  0
    2.2496   -1.0139    4.3181 H   0  0  0  0  0  0  0  0  0  0  0  0
    3.0668   -2.0490    1.5439 H   0  0  0  0  0  0  0  0  0  0  0  0
    4.1059   -1.3310    2.8876 H   0  0  0  0  0  0  0  0  0  0  0  0
    3.5146    0.4346    1.2539 H   0  0  0  0  0  0  0  0  0  0  0  0
    2.7520    0.7112    2.8321 H   0  0  0  0  0  0  0  0  0  0  0  0
    0.8626    0.9162    1.5834 H   0  0  0  0  0  0  0  0  0  0  0  0
    0.8921   -2.0222    0.9057 H   0  0  0  0  0  0  0  0  0  0  0  0
   -1.4610   -1.7171    1.4073 H   0  0  0  0  0  0  0  0  0  0  0  0
   -1.2340    0.0114    1.8000 H   0  0  0  0  0  0  0  0  0  0  0  0
   -0.7074   -1.5534   -0.7593 H   0  0  0  0  0  0  0  0  0  0  0  0
   -1.4490    3.2052   -0.9638 H   0  0  0  0  0  0  0  0  0  0  0  0
   -1.3253    2.4874    0.6567 H   0  0  0  0  0  0  0  0  0  0  0  0
    0.8133    2.2403   -0.3801 H   0  0  0  0  0  0  0  0  0  0  0  0
    0.1087    1.9164   -1.9731 H   0  0  0  0  0  0  0  0  0  0  0  0
    1.8333   -0.9793   -0.5393 H   0  0  0  0  0  0  0  0  0  0  0  0
    2.1920    0.8315   -0.5650 H   0  0  0  0  0  0  0  0  0  0  0  0
   -4.0002    3.6571   -1.3691 H   0  0  0  0  0  0  0  0  0  0  0  0
   -6.3151    3.4879   -2.1848 H   0  0  0  0  0  0  0  0  0  0  0  0
   -7.2864    1.2968   -2.5382 H   0  0  0  0  0  0  0  0  0  0  0  0
   -5.9384   -0.7773   -2.0745 H   0  0  0  0  0  0  0  0  0  0  0  0
   -3.4097   -1.6873   -1.1891 H   0  0  0  0  0  0  0  0  0  0  0  0
    3.3263   -3.3367    3.5691 H   0  0  0  0  0  0  0  0  0  0  0  0
  1  2  1  0
  2  3  1  0
  3  4  2  0
  3  5  1  0
  5  6  1  0
  6  7  1  0
  7  8  1  0
  8  9  1  0
  9 10  1  0
 10 11  1  0
 11 12  1  0
 12 13  1  0
 13 14  2  0
 14 15  1  0
 15 16  1  0
 16 17  1  0
 17 18  1  0
 14 19  1  0
 19 20  2  0
 20 21  1  0
 21 22  2  0
 22 23  1  0
 23 24  2  0
 24 25  1  0
  6 26  1  0
 10  5  1  0
 18  9  1  0
 17 12  1  0
 25 13  1  0
 24 19  1  0
  1 27  1  0
  1 28  1  0
  1 29  1  0
  5 30  1  1
  6 31  1  1
  7 32  1  0
  7 33  1  0
  8 34  1  0
  8 35  1  0
  9 36  1  1
 10 37  1  6
 11 38  1  0
 11 39  1  0
 12 40  1  6
 15 41  1  0
 15 42  1  0
 16 43  1  0
 16 44  1  0
 18 45  1  0
 18 46  1  0
 20 47  1  0
 21 48  1  0
 22 49  1  0
 23 50  1  0
 25 51  1  0
 26 52  1  0
M  END
$$$$
tar027
     RDKit          3D

 41 43  0  0  0  0  0  0  0  0999 V2000
    2.5271   -2.2405    3.4697 C   0  0  0  0  0  0  0  0  0  0  0  0
    1.1688   -2.2429    2.8395 C   0  0  0  0  0  0  0  0  0  0  0  0
    0.1827   -3.1051    3.2429 C   0  0  0  0  0  0  0  0  0  0  0  0
   -1.0636   -3.0565    2.6066 C   0  0  0  0  0  0  0  0  0  0  0  0
   -1.3295   -2.1700    1.5888 C   0  0  0  0  0  0  0  0  0  0  0  0
   -0.3379   -1.2949    1.1703 C   0  0  0  0  0  0  0  0  0  0  0  0
    0.8911   -1.3414    1.7991 C   0  0  0  0  0  0  0  0  0  0  0  0
    1.8923   -0.4801    1.4061 O   0  0  0  0  0  0  0  0  0  0  0  0
   -0.8606   -0.5519    0.0520 C   0  0  0  0  0  0  0  0  0  0  0  0
   -2.3064   -0.9512   -0.0561 C   0  0  0  0  0  0  0  0  0  0  0  0
   -3.0641   -0.3019   -0.9264 C   0  0  0  0  0  0  0  0  0  0  0  0
   -2.4418    0.7780   -1.7340 C   0  0  0  0  0  0  0  0  0  0  0  0
   -2.8553    0.8928   -2.9131 O   0  0  0  0  0  0  0  0  0  0  0  0
   -1.4133    1.6127   -1.1090 C   0  0  0  0  0  0  0  0  0  0  0  0
   -0.8690    0.9189    0.1095 C   0  0  0  0  0  0  0  0  0  0  0  0
   -0.4663    1.5642    1.0717 O   0  0  0  0  0  0  0  0  0  0  0  0
   -1.8791    2.9768   -0.7816 C   0  0  0  0  0  0  0  0  0  0  0  0
   -1.3049    3.9204   -1.2946 O   0  0  0  0  0  0  0  0  0  0  0  0
   -3.0190    3.1895    0.1497 C   0  0  0  0  0  0  0  0  0  0  0  0
   -2.5067   -1.9499    0.8315 O   0  0  0  0  0  0  0  0  0  0  0  0
   -0.1863   -0.9159   -1.2713 C   0  0  0  0  0  0  0  0  0  0  0  0
   -2.0970   -3.9755    3.0446 C   0  0  0  0  0  0  0  0  0  0  0  0
   -1.8547   -4.7746    3.9634 O   0  0  0  0  0  0  0  0  0  0  0  0
   -3.4231   -3.9528    2.3966 C   0  0  0  0  0  0  0  0  0  0  0  0
    0.3936   -4.0125    4.2574 O   0  0  0  0  0  0  0  0  0  0  0  0
    2.6846   -3.1865    4.0174 H   0  0  0  0  0  0  0  0  0  0  0  0
    2.6314   -1.3986    4.1787 H   0  0  0  0  0  0  0  0  0  0  0  0
    3.3083   -2.2393    2.6749 H   0  0  0  0  0  0  0  0  0  0  0  0
    2.7908   -0.4880    1.8482 H   0  0  0  0  0  0  0  0  0  0  0  0
   -4.0895   -0.5725   -1.0203 H   0  0  0  0  0  0  0  0  0  0  0  0
   -0.5572    1.6579   -1.8346 H   0  0  0  0  0  0  0  0  0  0  0  0
   -3.0290    4.2222    0.5098 H   0  0  0  0  0  0  0  0  0  0  0  0
   -3.9835    2.9835   -0.3761 H   0  0  0  0  0  0  0  0  0  0  0  0
   -2.8635    2.4859    1.0105 H   0  0  0  0  0  0  0  0  0  0  0  0
   -0.9539   -1.1639   -2.0322 H   0  0  0  0  0  0  0  0  0  0  0  0
    0.4845   -0.0920   -1.6094 H   0  0  0  0  0  0  0  0  0  0  0  0
    0.4893   -1.7818   -1.0652 H   0  0  0  0  0  0  0  0  0  0  0  0
   -3.8997   -2.9662    2.5466 H   0  0  0  0  0  0  0  0  0  0  0  0
   -4.0192   -4.7958    2.7534 H   0  0  0  0  0  0  0  0  0  0  0  0
   -3.3398   -4.0872    1.2789 H   0  0  0  0  0  0  0  0  0  0  0  0
    1.1837   -4.1819    4.8066 H   0  0  0  0  0  0  0  0  0  0  0  0
  1  2  1  0
  2  3  2  0
  3  4  1  0
  4  5  2  0
  5  6  1  0
  6  7  2  0
  7  8  1  0
  6  9  1  0
  9 10  1  0
 10 11  2  0
 11 12  1  0
 12 13  2  0
 12 14  1  0
 14 15  1  0
 15 16  2  0
 14 17  1  0
 17 18  2  0
 17 19  1  0
 10 20  1  0
  9 21  1  0
  4 22  1  0
 22 23  2  0
 22 24  1  0
  3 25  1  0
  7  2  1  0
 20  5  1  0
 15  9  1  0
  1 26  1  0
  1 27  1  0
  1 28  1  0
  8 29  1  0
 11 30  1  0
 14 31  1  0
 19 32  1  0
 19 33  1  0
 19 34  1  0
 21 35  1  0
 21 36  1  0
 21 37  1  0
 24 38  1  0
 24 39  1  0
 24 40  1  0
 25 41  1  0
M  END
$$$$
tar028
     RDKit          3D

 39 43  0  0  0  0  0  0  0  0999 V2000
    0.4185    2.2448    3.7592 C   0  0  0  0  0  0  0  0  0  0  0  0
    0.1178    0.9360    3.3911 C   0  0  0  0  0  0  0  0  0  0  0  0
    0.7937    0.2959    2.3737 C   0  0  0  0  0  0  0  0  0  0  0  0
    1.7897    0.9560    1.7001 C   0  0  0  0  0  0  0  0  0  0  0  0
    2.0719    2.2569    2.0829 C   0  0  0  0  0  0  0  0  0  0  0  0
    1.4175    2.9209    3.0909 C   0  0  0  0  0  0  0  0  0  0  0  0
    1.7246    4.2448    3.4602 N   0  0  0  0  0  0  0  0  0  0  0  0
    1.3408    4.6962    4.5953 C   0  0  0  0  0  0  0  0  0  0  0  0
    0.6847    5.4626    5.8499 S   0  0  0  0  0  0  0  0  0  0  0  0
    2.3247    0.0536    0.6907 C   0  0  0  0  0  0  0  0  0  0  0  0
    3.2661    0.3777   -0.1003 O   0  0  0  0  0  0  0  0  0  0  0  0
    1.6525   -1.1400    0.7600 O   0  0  0  0  0  0  0  0  0  0  0  0
    0.6909   -1.0565    1.7817 C   0  0  0  0  0  0  0  0  0  0  0  0
    0.9271   -2.1122    2.8156 C   0  0  0  0  0  0  0  0  0  0  0  0
    0.0210   -3.0871    3.1474 C   0  0  0  0  0  0  0  0  0  0  0  0
    0.3132   -4.0448    4.1285 C   0  0  0  0  0  0  0  0  0  0  0  0
    1.5254   -4.0277    4.7857 C   0  0  0  0  0  0  0  0  0  0  0  0
    2.4227   -3.0398    4.4380 C   0  0  0  0  0  0  0  0  0  0  0  0
    2.1353   -2.0972    3.4725 C   0  0  0  0  0  0  0  0  0  0  0  0
    1.8075   -4.9833    5.7594 O   0  0  0  0  0  0  0  0  0  0  0  0
   -1.1901   -3.1193    2.5037 O   0  0  0  0  0  0  0  0  0  0  0  0
   -1.5156   -2.2006    1.5375 C   0  0  0  0  0  0  0  0  0  0  0  0
   -0.6574   -1.2117    1.1672 C   0  0  0  0  0  0  0  0  0  0  0  0
   -1.0035   -0.2994    0.1950 C   0  0  0  0  0  0  0  0  0  0  0  0
   -2.2232   -0.3774   -0.4143 C   0  0  0  0  0  0  0  0  0  0  0  0
   -3.1003   -1.3783   -0.0443 C   0  0  0  0  0  0  0  0  0  0  0  0
   -2.7728   -2.2969    0.9231 C   0  0  0  0  0  0  0  0  0  0  0  0
   -4.3469   -1.4514   -0.6726 O   0  0  0  0  0  0  0  0  0  0  0  0
   -0.1102    2.7481    4.5565 H   0  0  0  0  0  0  0  0  0  0  0  0
   -0.6712    0.4435    3.9403 H   0  0  0  0  0  0  0  0  0  0  0  0
    2.8572    2.7639    1.5449 H   0  0  0  0  0  0  0  0  0  0  0  0
   -0.4102   -4.8073    4.3798 H   0  0  0  0  0  0  0  0  0  0  0  0
    3.3854   -3.0240    4.9580 H   0  0  0  0  0  0  0  0  0  0  0  0
    2.8718   -1.3295    3.2239 H   0  0  0  0  0  0  0  0  0  0  0  0
    2.2494   -5.8424    5.4668 H   0  0  0  0  0  0  0  0  0  0  0  0
   -0.3125    0.4777   -0.0867 H   0  0  0  0  0  0  0  0  0  0  0  0
   -2.5359    0.3325   -1.1947 H   0  0  0  0  0  0  0  0  0  0  0  0
   -3.4555   -3.0840    1.2179 H   0  0  0  0  0  0  0  0  0  0  0  0
   -5.1650   -0.9845   -0.3431 H   0  0  0  0  0  0  0  0  0  0  0  0
  1  2  2  0
  2  3  1  0
  3  4  2  0
  4  5  1  0
  5  6  2  0
  6  7  1  0
  7  8  2  0
  8  9  2  0
  4 10  1  0
 10 11  2  0
 10 12  1  0
 12 13  1  0
 13 14  1  0
 14 15  1  0
 15 16  2  0
 16 17  1  0
 17 18  2  0
 18 19  1  0
 17 20  1  0
 15 21  1  0
 21 22  1  0
 22 23  2  0
 23 24  1  0
 24 25  2  0
 25 26  1  0
 26 27  2  0
 26 28  1  0
  6  1  1  0
 13  3  1  0
 23 13  1  0
 19 14  2  0
 27 22  1  0
  1 29  1  0
  2 30  1  0
  5 31  1  0
 16 32  1  0
 18 33  1  0
 19 34  1  0
 20 35  1  0
 24 36  1  0
 25 37  1  0
 27 38  1  0
 28 39  1  0
M  END
$$$$
tar029
     RDKit          3D

 24 25  0  0  0  0  0  0  0  0999 V2000
   -0.0355    0.6132   -0.3284 C   0  0  0  0  0  0  0  0  0  0  0  0
   -0.9502   -0.3350    0.1156 C   0  0  0  0  0  0  0  0  0  0  0  0
   -0.6122   -1.2301    1.1155 C   0  0  0  0  0  0  0  0  0  0  0  0
    0.6658   -1.1774    1.6840 C   0  0  0  0  0  0  0  0  0  0  0  0
    1.5500   -0.2175    1.2143 C   0  0  0  0  0  0  0  0  0  0  0  0
    1.2295    0.6787    0.2218 C   0  0  0  0  0  0  0  0  0  0  0  0
    2.1703    1.6468   -0.2282 N   0  0  0  0  0  0  0  0  0  0  0  0
    2.8511   -0.1385    1.7693 N   0  0  0  0  0  0  0  0  0  0  0  0
    1.0074   -2.0598    2.6737 C   0  0  0  0  0  0  0  0  0  0  0  0
    0.0957   -2.9524    3.0673 N   0  0  0  0  0  0  0  0  0  0  0  0
   -1.1396   -3.0223    2.5355 C   0  0  0  0  0  0  0  0  0  0  0  0
   -1.4744   -2.1566    1.5646 N   0  0  0  0  0  0  0  0  0  0  0  0
   -2.0927   -3.9996    2.9881 N   0  0  0  0  0  0  0  0  0  0  0  0
    2.2867   -2.0221    3.2569 N   0  0  0  0  0  0  0  0  0  0  0  0
   -0.3323    1.2880   -1.1025 H   0  0  0  0  0  0  0  0  0  0  0  0
   -1.9376   -0.3961   -0.3046 H   0  0  0  0  0  0  0  0  0  0  0  0
    2.1009    2.1018   -1.1649 H   0  0  0  0  0  0  0  0  0  0  0  0
    2.9619    1.9262    0.3791 H   0  0  0  0  0  0  0  0  0  0  0  0
    2.9690    0.3622    2.6776 H   0  0  0  0  0  0  0  0  0  0  0  0
    3.7000   -0.5479    1.3303 H   0  0  0  0  0  0  0  0  0  0  0  0
   -2.7659   -3.7752    3.7338 H   0  0  0  0  0  0  0  0  0  0  0  0
   -2.1233   -4.9659    2.5671 H   0  0  0  0  0  0  0  0  0  0  0  0
    2.4665   -1.6293    4.2086 H   0  0  0  0  0  0  0  0  0  0  0  0
    3.1202   -2.3912    2.7535 H   0  0  0  0  0  0  0  0  0  0  0  0
  1  2  2  0
  2  3  1  0
  3  4  2  0
  4  5  1  0
  5  6  2  0
  6  7  1  0
  5  8  1  0
  4  9  1  0
  9 10  2  0
 10 11  1  0
 11 12  2  0
 11 13  1  0
  9 14  1  0
  6  1  1  0
 12  3  1  0
  1 15  1  0
  2 16  1  0
  7 17  1  0
  7 18  1  0
  8 19  1  0
  8 20  1  0
 13 21  1  0
 13 22  1  0
 14 23  1  0
 14 24  1  0
M  END
$$$$
tar030
     RDKit          3D

 32 35  0  0  0  0  0  0  0  0999 V2000
   -2.5388   -2.1339    0.4704 C   0  0  0  0  0  0  0  0  0  0  0  0
   -2.4569   -0.7045   -0.0116 C   0  0  0  0  0  0  0  0  0  0  0  0
   -0.9397   -0.5900   -0.2283 C   0  0  0  0  0  0  0  0  0  0  0  0
   -0.4438   -1.3562    0.9730 C   0  0  0  0  0  0  0  0  0  0  0  0
    0.7676   -1.2192    1.6176 C   0  0  0  0  0  0  0  0  0  0  0  0
    1.0306   -2.0204    2.7185 C   0  0  0  0  0  0  0  0  0  0  0  0
    0.0551   -2.9156    3.1073 C   0  0  0  0  0  0  0  0  0  0  0  0
   -1.1475   -3.0569    2.4732 C   0  0  0  0  0  0  0  0  0  0  0  0
   -1.4056   -2.2557    1.3752 C   0  0  0  0  0  0  0  0  0  0  0  0
   -2.1165   -3.9888    2.9075 N   0  0  0  0  0  4  0  0  0  0  0  0
   -1.7334   -5.0143    3.5083 O   0  0  0  0  0  0  0  0  0  0  0  0
   -3.4505   -3.8371    2.7114 O   0  0  0  0  0  1  0  0  0  0  0  0
    2.1997   -1.9163    3.3726 N   0  0  0  0  0  0  0  0  0  0  0  0
    3.1559   -1.0283    2.9788 C   0  0  0  0  0  0  0  0  0  0  0  0
    4.2487   -0.9047    3.5597 O   0  0  0  0  0  0  0  0  0  0  0  0
    2.9034   -0.2288    1.8866 C   0  0  0  0  0  0  0  0  0  0  0  0
    3.7128    0.6185    1.4426 O   0  0  0  0  0  0  0  0  0  0  0  0
    1.7201   -0.3478    1.2404 N   0  0  0  0  0  0  0  0  0  0  0  0
   -3.2129   -0.4901   -1.2409 C   0  0  0  0  0  0  0  0  0  0  0  0
   -4.1831    0.4432   -1.4504 N   0  0  0  0  0  0  0  0  0  0  0  0
   -4.6232    0.3158   -2.6896 N   0  0  0  0  0  0  0  0  0  0  0  0
   -3.9712   -0.6646   -3.2826 N   0  0  0  0  0  0  0  0  0  0  0  0
   -3.1080   -1.1553   -2.3907 N   0  0  0  0  0  0  0  0  0  0  0  0
   -2.3402   -2.7739   -0.4355 H   0  0  0  0  0  0  0  0  0  0  0  0
   -3.5248   -2.3818    0.8929 H   0  0  0  0  0  0  0  0  0  0  0  0
   -2.7526    0.0168    0.7900 H   0  0  0  0  0  0  0  0  0  0  0  0
   -0.6213    0.4565   -0.2091 H   0  0  0  0  0  0  0  0  0  0  0  0
   -0.6444   -1.0713   -1.1701 H   0  0  0  0  0  0  0  0  0  0  0  0
    0.2372   -3.5646    3.9787 H   0  0  0  0  0  0  0  0  0  0  0  0
    2.4122   -2.5055    4.1939 H   0  0  0  0  0  0  0  0  0  0  0  0
    1.4940    0.2526    0.3960 H   0  0  0  0  0  0  0  0  0  0  0  0
   -5.3642    0.8864   -3.1435 H   0  0  0  0  0  0  0  0  0  0  0  0
  1  2  1  0
  2  3  1  0
  3  4  1  0
  4  5  2  0
  5  6  1  0
  6  7  2  0
  7  8  1  0
  8  9  2  0
  8 10  1  0
 10 11  2  0
 10 12  1  0
  6 13  1  0
 13 14  1  0
 14 15  2  0
 14 16  1  0
 16 17  2  0
 16 18  1  0
  2 19  1  0
 19 20  2  0
 20 21  1  0
 21 22  1  0
 22 23  2  0
  9  1  1  0
  9  4  1  0
 18  5  1  0
 23 19  1  0
  1 24  1  0
  1 25  1  0
  2 26  1  0
  3 27  1  0
  3 28  1  0
  7 29  1  0
 13 30  1  0
 18 31  1  0
 21 32  1  0
M  CHG  2  10   1  12  -1
M  END
$$$$
