ivp001_2lwk
  MOE2018           3D

 40 42  0  0  0  0  0  0  0  0999 V2000
  -10.0710   -4.9120    1.3600 C   0  0  0  0  0  0  0  0  0  0  0  0
  -10.5080   -4.2700    2.5480 O   0  0  0  0  0  0  0  0  0  0  0  0
   -9.7620   -3.1960    3.0190 C   0  0  0  0  0  0  0  0  0  0  0  0
  -10.1710   -2.5730    4.1560 C   0  0  0  0  0  0  0  0  0  0  0  0
   -9.4480   -1.5040    4.6450 C   0  0  0  0  0  0  0  0  0  0  0  0
   -8.3040   -1.0430    4.0000 C   0  0  0  0  0  0  0  0  0  0  0  0
   -7.9100   -1.6790    2.8620 C   0  0  0  0  0  0  0  0  0  0  0  0
   -8.6250   -2.7480    2.3670 C   0  0  0  0  0  0  0  0  0  0  0  0
   -6.7720   -1.2300    2.2100 C   0  0  0  0  0  0  0  0  0  0  0  0
   -6.0870   -0.1850    2.7090 N   0  0  0  0  0  0  0  0  0  0  0  0
   -6.4820    0.4380    3.8320 C   0  0  0  0  0  0  0  0  0  0  0  0
   -7.5830   -0.0070    4.4510 N   0  0  0  0  0  0  0  0  0  0  0  0
   -5.7360    1.5420    4.3370 N   0  0  0  0  0  0  0  0  0  0  0  0
   -4.5510    1.9900    3.6360 C   0  0  0  0  0  0  0  0  0  0  0  0
   -4.2620    3.4030    4.1570 C   0  0  0  0  0  0  0  0  0  0  0  0
   -5.5080    4.1100    4.1650 N   0  0  0  0  0  0  0  0  0  0  0  0
   -6.4320    3.6720    5.1640 C   0  0  0  0  0  0  0  0  0  0  0  0
   -6.1180    2.2380    5.5310 C   0  0  0  0  0  0  0  0  0  0  0  0
   -6.3770   -1.9090    1.0220 N   0  0  0  0  0  0  0  0  0  0  0  0
  -11.2960   -2.9560    4.8720 O   0  0  0  0  0  0  0  0  0  0  0  0
  -11.7200   -2.3150    6.0460 C   0  0  0  0  0  0  0  0  0  0  0  0
   -9.9500   -4.1310    0.5960 H   0  0  0  0  0  0  0  0  0  0  0  0
   -9.0880   -5.3790    1.5780 H   0  0  0  0  0  0  0  0  0  0  0  0
  -10.8270   -5.6820    1.0780 H   0  0  0  0  0  0  0  0  0  0  0  0
   -9.7270   -0.9720    5.5440 H   0  0  0  0  0  0  0  0  0  0  0  0
   -8.2970   -3.2430    1.4590 H   0  0  0  0  0  0  0  0  0  0  0  0
   -4.7810    2.0570    2.5610 H   0  0  0  0  0  0  0  0  0  0  0  0
   -3.6750    1.3320    3.8390 H   0  0  0  0  0  0  0  0  0  0  0  0
   -3.7970    3.3080    5.1520 H   0  0  0  0  0  0  0  0  0  0  0  0
   -3.5490    3.8940    3.4970 H   0  0  0  0  0  0  0  0  0  0  0  0
   -5.4260    5.1370    4.0650 H   0  0  0  0  0  0  0  0  0  0  0  0
   -7.4580    3.7080    4.6960 H   0  0  0  0  0  0  0  0  0  0  0  0
   -6.4640    4.3160    6.0640 H   0  0  0  0  0  0  0  0  0  0  0  0
   -6.9590    1.7520    6.0690 H   0  0  0  0  0  0  0  0  0  0  0  0
   -5.2560    2.2810    6.2410 H   0  0  0  0  0  0  0  0  0  0  0  0
   -6.5700   -1.5250    0.0690 H   0  0  0  0  0  0  0  0  0  0  0  0
   -5.8810   -2.8150    1.0690 H   0  0  0  0  0  0  0  0  0  0  0  0
  -10.8450   -2.2120    6.7170 H   0  0  0  0  0  0  0  0  0  0  0  0
  -12.1640   -1.3240    5.8270 H   0  0  0  0  0  0  0  0  0  0  0  0
  -12.4220   -3.0040    6.5600 H   0  0  0  0  0  0  0  0  0  0  0  0
  1  2  1  0  0  0  0
  1 22  1  0  0  0  0
  1 23  1  0  0  0  0
  1 24  1  0  0  0  0
  2  3  1  0  0  0  0
  3  4  1  0  0  0  0
  3  8  2  0  0  0  0
  4  5  2  0  0  0  0
  4 20  1  0  0  0  0
  5  6  1  0  0  0  0
  5 25  1  0  0  0  0
  6  7  1  0  0  0  0
  6 12  2  0  0  0  0
  7  8  1  0  0  0  0
  7  9  2  0  0  0  0
  8 26  1  0  0  0  0
  9 10  1  0  0  0  0
  9 19  1  0  0  0  0
 10 11  2  0  0  0  0
 11 12  1  0  0  0  0
 11 13  1  0  0  0  0
 13 14  1  0  0  0  0
 13 18  1  0  0  0  0
 14 15  1  0  0  0  0
 14 27  1  0  0  0  0
 14 28  1  0  0  0  0
 15 16  1  0  0  0  0
 15 29  1  0  0  0  0
 15 30  1  0  0  0  0
 16 17  1  0  0  0  0
 16 31  1  0  0  0  0
 17 18  1  0  0  0  0
 17 32  1  0  0  0  0
 17 33  1  0  0  0  0
 18 34  1  0  0  0  0
 18 35  1  0  0  0  0
 19 36  1  0  0  0  0
 19 37  1  0  0  0  0
 20 21  1  0  0  0  0
 21 38  1  0  0  0  0
 21 39  1  0  0  0  0
 21 40  1  0  0  0  0
M  END
$$$$
ivp002
  MOE2018           3D

 61 63  0  0  0  0  0  0  0  0999 V2000
  -11.9010   -2.4360    6.0580 C   0  0  0  0  0  0  0  0  0  0  0  0
  -11.3850   -3.0320    4.8550 O   0  0  0  0  0  0  0  0  0  0  0  0
  -10.2540   -2.6190    4.1860 C   0  0  0  0  0  0  0  0  0  0  0  0
   -9.5090   -1.5520    4.6470 C   0  0  0  0  0  0  0  0  0  0  0  0
   -8.3570   -1.1480    3.9530 C   0  0  0  0  0  0  0  0  0  0  0  0
   -7.6170   -0.1040    4.4110 N   0  0  0  0  0  0  0  0  0  0  0  0
   -6.5480    0.2420    3.7470 C   0  0  0  0  0  0  0  0  0  0  0  0
   -6.1100   -0.3550    2.6150 N   0  0  0  0  0  0  0  0  0  0  0  0
   -6.7980   -1.3430    2.1600 C   0  0  0  0  0  0  0  0  0  0  0  0
   -6.3160   -1.8800    1.0150 N   0  0  0  0  0  0  0  0  0  0  0  0
   -7.9720   -1.8290    2.7900 C   0  0  0  0  0  0  0  0  0  0  0  0
   -8.7340   -2.9210    2.3270 C   0  0  0  0  0  0  0  0  0  0  0  0
   -9.8650   -3.3090    3.0160 C   0  0  0  0  0  0  0  0  0  0  0  0
  -10.6300   -4.3730    2.5790 O   0  0  0  0  0  0  0  0  0  0  0  0
  -10.3610   -5.1700    1.4130 C   0  0  0  0  0  0  0  0  0  0  0  0
   -5.8030    1.3020    4.2330 N   0  0  0  0  0  0  0  0  0  0  0  0
   -6.3140    2.0730    5.3860 C   0  0  0  0  0  0  0  0  0  0  0  0
   -5.1670    2.9350    5.9470 C   0  0  0  0  0  0  0  0  0  0  0  0
   -4.7200    3.8460    4.8700 N   0  0  0  0  0  0  0  0  0  0  0  0
   -4.7350    3.3440    3.4770 C   0  0  0  0  0  0  0  0  0  0  0  0
   -4.6260    1.8140    3.4950 C   0  0  0  0  0  0  0  0  0  0  0  0
   -4.4000    5.1350    5.0750 C   0  0  0  0  0  0  0  0  0  0  0  0
   -4.2560    5.9070    4.1300 O   0  0  0  0  0  0  0  0  0  0  0  0
   -4.1470    5.6560    6.5010 C   0  0  0  0  0  0  0  0  0  0  0  0
   -3.4450    6.9410    6.5060 N   0  0  0  0  0  0  0  0  0  0  0  0
   -2.8700    7.4520    7.5900 C   0  0  0  0  0  0  0  0  0  0  0  0
   -2.9380    6.8680    8.6690 O   0  0  0  0  0  0  0  0  0  0  0  0
   -2.1160    8.7880    7.4460 C   0  0  0  0  0  0  0  0  0  0  0  0
   -1.4230    9.2130    8.6640 N   0  0  0  0  0  0  0  0  0  0  0  0
   -0.7390   10.3470    8.7770 C   0  0  0  0  0  0  0  0  0  0  0  0
   -0.6510   11.1380    7.8450 O   0  0  0  0  0  0  0  0  0  0  0  0
   -0.0820   10.6460   10.1410 C   0  0  0  0  0  0  0  0  0  0  0  0
   -0.7490    9.9990   11.3180 N   0  0  0  0  0  0  0  0  0  0  0  0
  -11.1440   -2.5210    6.8380 H   0  0  0  0  0  0  0  0  0  0  0  0
  -12.1440   -1.3930    5.8500 H   0  0  0  0  0  0  0  0  0  0  0  0
  -12.7990   -2.9850    6.3400 H   0  0  0  0  0  0  0  0  0  0  0  0
   -9.7810   -1.0240    5.5190 H   0  0  0  0  0  0  0  0  0  0  0  0
   -6.9670   -2.3850    0.4060 H   0  0  0  0  0  0  0  0  0  0  0  0
   -5.5740   -1.3250    0.5710 H   0  0  0  0  0  0  0  0  0  0  0  0
   -8.4280   -3.4390    1.4600 H   0  0  0  0  0  0  0  0  0  0  0  0
   -9.3860   -5.6430    1.5360 H   0  0  0  0  0  0  0  0  0  0  0  0
  -11.1430   -5.9270    1.3430 H   0  0  0  0  0  0  0  0  0  0  0  0
  -10.3830   -4.5200    0.5380 H   0  0  0  0  0  0  0  0  0  0  0  0
   -7.1150    2.7230    5.0570 H   0  0  0  0  0  0  0  0  0  0  0  0
   -6.6290    1.3980    6.1720 H   0  0  0  0  0  0  0  0  0  0  0  0
   -4.3540    2.2800    6.2330 H   0  0  0  0  0  0  0  0  0  0  0  0
   -5.5650    3.4890    6.7860 H   0  0  0  0  0  0  0  0  0  0  0  0
   -5.6710    3.6170    3.0060 H   0  0  0  0  0  0  0  0  0  0  0  0
   -3.8800    3.7320    2.9370 H   0  0  0  0  0  0  0  0  0  0  0  0
   -4.6180    1.4920    2.4620 H   0  0  0  0  0  0  0  0  0  0  0  0
   -3.7200    1.5270    4.0110 H   0  0  0  0  0  0  0  0  0  0  0  0
   -5.1040    5.7620    7.0100 H   0  0  0  0  0  0  0  0  0  0  0  0
   -3.5490    4.9180    7.0360 H   0  0  0  0  0  0  0  0  0  0  0  0
   -3.3740    7.4050    5.6090 H   0  0  0  0  0  0  0  0  0  0  0  0
   -2.8340    9.5550    7.1540 H   0  0  0  0  0  0  0  0  0  0  0  0
   -1.3890    8.6850    6.6400 H   0  0  0  0  0  0  0  0  0  0  0  0
   -1.4910    8.6200    9.4850 H   0  0  0  0  0  0  0  0  0  0  0  0
   -0.0710   11.7290   10.2720 H   0  0  0  0  0  0  0  0  0  0  0  0
    0.9500   10.2980   10.0850 H   0  0  0  0  0  0  0  0  0  0  0  0
   -1.7110   10.3090   11.3810 H   0  0  0  0  0  0  0  0  0  0  0  0
   -0.2660   10.2400   12.1740 H   0  0  0  0  0  0  0  0  0  0  0  0
  1  2  1  0  0  0  0
  1 34  1  0  0  0  0
  1 35  1  0  0  0  0
  1 36  1  0  0  0  0
  2  3  1  0  0  0  0
  3  4  1  0  0  0  0
  3 13  2  0  0  0  0
  4  5  2  0  0  0  0
  4 37  1  0  0  0  0
  5  6  1  0  0  0  0
  5 11  1  0  0  0  0
  6  7  2  0  0  0  0
  7  8  1  0  0  0  0
  7 16  1  0  0  0  0
  8  9  2  0  0  0  0
  9 10  1  0  0  0  0
  9 11  1  0  0  0  0
 10 38  1  0  0  0  0
 10 39  1  0  0  0  0
 11 12  2  0  0  0  0
 12 13  1  0  0  0  0
 12 40  1  0  0  0  0
 13 14  1  0  0  0  0
 14 15  1  0  0  0  0
 15 41  1  0  0  0  0
 15 42  1  0  0  0  0
 15 43  1  0  0  0  0
 16 17  1  0  0  0  0
 16 21  1  0  0  0  0
 17 18  1  0  0  0  0
 17 44  1  0  0  0  0
 17 45  1  0  0  0  0
 18 19  1  0  0  0  0
 18 46  1  0  0  0  0
 18 47  1  0  0  0  0
 19 20  1  0  0  0  0
 19 22  1  0  0  0  0
 20 21  1  0  0  0  0
 20 48  1  0  0  0  0
 20 49  1  0  0  0  0
 21 50  1  0  0  0  0
 21 51  1  0  0  0  0
 22 23  2  0  0  0  0
 22 24  1  0  0  0  0
 24 25  1  0  0  0  0
 24 52  1  0  0  0  0
 24 53  1  0  0  0  0
 25 26  1  0  0  0  0
 25 54  1  0  0  0  0
 26 27  2  0  0  0  0
 26 28  1  0  0  0  0
 28 29  1  0  0  0  0
 28 55  1  0  0  0  0
 28 56  1  0  0  0  0
 29 30  1  0  0  0  0
 29 57  1  0  0  0  0
 30 31  2  0  0  0  0
 30 32  1  0  0  0  0
 32 33  1  0  0  0  0
 32 58  1  0  0  0  0
 32 59  1  0  0  0  0
 33 60  1  0  0  0  0
 33 61  1  0  0  0  0
M  END
$$$$
ivp003
  MOE2018           3D

 48 50  0  0  0  0  0  0  0  0999 V2000
   -2.8060    6.4850    6.5830 C   0  0  0  0  0  0  0  0  0  0  0  0
   -2.7850    5.3230    5.5730 C   0  0  0  0  0  0  0  0  0  0  0  0
   -4.1530    5.0780    4.9350 C   0  0  0  0  0  0  0  0  0  0  0  0
   -4.8040    6.0300    4.5340 O   0  0  0  0  0  0  0  0  0  0  0  0
   -4.6400    3.8330    4.8960 N   0  0  0  0  0  0  0  0  0  0  0  0
   -6.0960    3.6430    4.9670 C   0  0  0  0  0  0  0  0  0  0  0  0
   -6.3590    2.1760    5.3490 C   0  0  0  0  0  0  0  0  0  0  0  0
   -5.8230    1.3340    4.2500 N   0  0  0  0  0  0  0  0  0  0  0  0
   -4.6550    1.8350    3.4920 C   0  0  0  0  0  0  0  0  0  0  0  0
   -3.8070    2.7000    4.4500 C   0  0  0  0  0  0  0  0  0  0  0  0
   -6.5550    0.2670    3.7620 C   0  0  0  0  0  0  0  0  0  0  0  0
   -7.6140   -0.1010    4.4290 N   0  0  0  0  0  0  0  0  0  0  0  0
   -8.3470   -1.1460    3.9680 C   0  0  0  0  0  0  0  0  0  0  0  0
   -9.4950   -1.5600    4.6630 C   0  0  0  0  0  0  0  0  0  0  0  0
  -10.2430   -2.6200    4.1930 C   0  0  0  0  0  0  0  0  0  0  0  0
   -9.8590   -3.2950    3.0120 C   0  0  0  0  0  0  0  0  0  0  0  0
   -8.7360   -2.8930    2.3190 C   0  0  0  0  0  0  0  0  0  0  0  0
   -7.9650   -1.8130    2.7970 C   0  0  0  0  0  0  0  0  0  0  0  0
   -6.7920   -1.3160    2.1690 C   0  0  0  0  0  0  0  0  0  0  0  0
   -6.1110   -0.3220    2.6240 N   0  0  0  0  0  0  0  0  0  0  0  0
   -6.2990   -1.8640    1.0340 N   0  0  0  0  0  0  0  0  0  0  0  0
  -10.6260   -4.3560    2.5690 O   0  0  0  0  0  0  0  0  0  0  0  0
  -10.3640   -5.1400    1.3920 C   0  0  0  0  0  0  0  0  0  0  0  0
  -11.3740   -3.0380    4.8590 O   0  0  0  0  0  0  0  0  0  0  0  0
  -11.8900   -2.4460    6.0650 C   0  0  0  0  0  0  0  0  0  0  0  0
   -1.8170    6.6090    7.0260 H   0  0  0  0  0  0  0  0  0  0  0  0
   -3.0890    7.4090    6.0770 H   0  0  0  0  0  0  0  0  0  0  0  0
   -3.5310    6.2750    7.3710 H   0  0  0  0  0  0  0  0  0  0  0  0
   -2.0720    5.5410    4.7790 H   0  0  0  0  0  0  0  0  0  0  0  0
   -2.4610    4.4230    6.0950 H   0  0  0  0  0  0  0  0  0  0  0  0
   -6.5050    4.2790    5.7410 H   0  0  0  0  0  0  0  0  0  0  0  0
   -6.5400    3.8410    3.9990 H   0  0  0  0  0  0  0  0  0  0  0  0
   -7.4300    2.0680    5.4500 H   0  0  0  0  0  0  0  0  0  0  0  0
   -5.8390    1.9480    6.2700 H   0  0  0  0  0  0  0  0  0  0  0  0
   -4.0390    1.0050    3.1690 H   0  0  0  0  0  0  0  0  0  0  0  0
   -4.9920    2.4450    2.6630 H   0  0  0  0  0  0  0  0  0  0  0  0
   -3.5290    2.0950    5.3030 H   0  0  0  0  0  0  0  0  0  0  0  0
   -2.9490    3.0630    3.8990 H   0  0  0  0  0  0  0  0  0  0  0  0
   -9.7630   -1.0420    5.5430 H   0  0  0  0  0  0  0  0  0  0  0  0
   -8.4500   -3.3830    1.4280 H   0  0  0  0  0  0  0  0  0  0  0  0
   -5.3580   -1.5340    0.7840 H   0  0  0  0  0  0  0  0  0  0  0  0
   -6.5340   -2.8400    0.8270 H   0  0  0  0  0  0  0  0  0  0  0  0
   -9.3880   -5.6130    1.5040 H   0  0  0  0  0  0  0  0  0  0  0  0
  -10.3920   -4.4800    0.5250 H   0  0  0  0  0  0  0  0  0  0  0  0
  -11.1460   -5.8960    1.3190 H   0  0  0  0  0  0  0  0  0  0  0  0
  -12.7920   -2.9930    6.3420 H   0  0  0  0  0  0  0  0  0  0  0  0
  -11.1350   -2.5390    6.8460 H   0  0  0  0  0  0  0  0  0  0  0  0
  -12.1280   -1.4010    5.8630 H   0  0  0  0  0  0  0  0  0  0  0  0
  1  2  1  0  0  0  0
  1 26  1  0  0  0  0
  1 27  1  0  0  0  0
  1 28  1  0  0  0  0
  2  3  1  0  0  0  0
  2 29  1  0  0  0  0
  2 30  1  0  0  0  0
  3  4  2  0  0  0  0
  3  5  1  0  0  0  0
  5  6  1  0  0  0  0
  5 10  1  0  0  0  0
  6  7  1  0  0  0  0
  6 31  1  0  0  0  0
  6 32  1  0  0  0  0
  7  8  1  0  0  0  0
  7 33  1  0  0  0  0
  7 34  1  0  0  0  0
  8  9  1  0  0  0  0
  8 11  1  0  0  0  0
  9 10  1  0  0  0  0
  9 35  1  0  0  0  0
  9 36  1  0  0  0  0
 10 37  1  0  0  0  0
 10 38  1  0  0  0  0
 11 12  1  0  0  0  0
 11 20  2  0  0  0  0
 12 13  2  0  0  0  0
 13 14  1  0  0  0  0
 13 18  1  0  0  0  0
 14 15  2  0  0  0  0
 14 39  1  0  0  0  0
 15 16  1  0  0  0  0
 15 24  1  0  0  0  0
 16 17  2  0  0  0  0
 16 22  1  0  0  0  0
 17 18  1  0  0  0  0
 17 40  1  0  0  0  0
 18 19  2  0  0  0  0
 19 20  1  0  0  0  0
 19 21  1  0  0  0  0
 21 41  1  0  0  0  0
 21 42  1  0  0  0  0
 22 23  1  0  0  0  0
 23 43  1  0  0  0  0
 23 44  1  0  0  0  0
 23 45  1  0  0  0  0
 24 25  1  0  0  0  0
 25 46  1  0  0  0  0
 25 47  1  0  0  0  0
 25 48  1  0  0  0  0
M  END
$$$$
ivp004
  MOE2018           3D

 51 53  0  0  0  0  0  0  0  0999 V2000
   -6.3130   -1.8750    1.0180 N   0  0  0  0  0  0  0  0  0  0  0  0
   -6.7940   -1.3370    2.1620 C   0  0  0  0  0  0  0  0  0  0  0  0
   -6.1070   -0.3480    2.6150 N   0  0  0  0  0  0  0  0  0  0  0  0
   -6.5460    0.2520    3.7460 C   0  0  0  0  0  0  0  0  0  0  0  0
   -5.8030    1.3160    4.2270 N   0  0  0  0  0  0  0  0  0  0  0  0
   -4.6330    1.8340    3.4790 C   0  0  0  0  0  0  0  0  0  0  0  0
   -4.7240    3.3670    3.4910 C   0  0  0  0  0  0  0  0  0  0  0  0
   -4.6730    3.8440    4.8910 N   0  0  0  0  0  0  0  0  0  0  0  0
   -4.3220    5.1270    5.1050 C   0  0  0  0  0  0  0  0  0  0  0  0
   -4.0220    5.6370    6.5320 C   0  0  0  0  0  0  0  0  0  0  0  0
   -5.2460    6.3210    7.1600 C   0  0  0  0  0  0  0  0  0  0  0  0
   -2.8470    6.6310    6.5690 C   0  0  0  0  0  0  0  0  0  0  0  0
   -4.2140    5.9040    4.1630 O   0  0  0  0  0  0  0  0  0  0  0  0
   -5.1420    2.9240    5.9510 C   0  0  0  0  0  0  0  0  0  0  0  0
   -6.3060    2.0930    5.3790 C   0  0  0  0  0  0  0  0  0  0  0  0
   -7.6140   -0.0950    4.4110 N   0  0  0  0  0  0  0  0  0  0  0  0
   -8.3530   -1.1410    3.9550 C   0  0  0  0  0  0  0  0  0  0  0  0
   -9.5050   -1.5460    4.6490 C   0  0  0  0  0  0  0  0  0  0  0  0
  -10.2500   -2.6130    4.1890 C   0  0  0  0  0  0  0  0  0  0  0  0
  -11.3810   -3.0270    4.8570 O   0  0  0  0  0  0  0  0  0  0  0  0
  -11.8970   -2.4310    6.0610 C   0  0  0  0  0  0  0  0  0  0  0  0
   -9.8610   -3.3030    3.0190 C   0  0  0  0  0  0  0  0  0  0  0  0
  -10.6260   -4.3680    2.5820 O   0  0  0  0  0  0  0  0  0  0  0  0
  -10.3560   -5.1650    1.4150 C   0  0  0  0  0  0  0  0  0  0  0  0
   -8.7300   -2.9150    2.3300 C   0  0  0  0  0  0  0  0  0  0  0  0
   -7.9680   -1.8230    2.7930 C   0  0  0  0  0  0  0  0  0  0  0  0
   -5.5700   -1.3210    0.5730 H   0  0  0  0  0  0  0  0  0  0  0  0
   -6.9640   -2.3810    0.4090 H   0  0  0  0  0  0  0  0  0  0  0  0
   -3.7210    1.5290    3.9750 H   0  0  0  0  0  0  0  0  0  0  0  0
   -4.6480    1.5310    2.4410 H   0  0  0  0  0  0  0  0  0  0  0  0
   -3.8750    3.7530    2.9410 H   0  0  0  0  0  0  0  0  0  0  0  0
   -5.6650    3.6610    3.0450 H   0  0  0  0  0  0  0  0  0  0  0  0
   -3.7340    4.7920    7.1560 H   0  0  0  0  0  0  0  0  0  0  0  0
   -5.0230    6.6300    8.1810 H   0  0  0  0  0  0  0  0  0  0  0  0
   -5.5180    7.1980    6.5700 H   0  0  0  0  0  0  0  0  0  0  0  0
   -6.0950    5.6380    7.1730 H   0  0  0  0  0  0  0  0  0  0  0  0
   -3.0920    7.5220    5.9890 H   0  0  0  0  0  0  0  0  0  0  0  0
   -2.6270    6.9200    7.5970 H   0  0  0  0  0  0  0  0  0  0  0  0
   -1.9630    6.1640    6.1320 H   0  0  0  0  0  0  0  0  0  0  0  0
   -5.5320    3.4730    6.7960 H   0  0  0  0  0  0  0  0  0  0  0  0
   -4.3420    2.2510    6.2290 H   0  0  0  0  0  0  0  0  0  0  0  0
   -6.6420    1.4230    6.1600 H   0  0  0  0  0  0  0  0  0  0  0  0
   -7.0880    2.7640    5.0470 H   0  0  0  0  0  0  0  0  0  0  0  0
   -9.7770   -1.0180    5.5220 H   0  0  0  0  0  0  0  0  0  0  0  0
  -12.7950   -2.9810    6.3420 H   0  0  0  0  0  0  0  0  0  0  0  0
  -12.1410   -1.3890    5.8520 H   0  0  0  0  0  0  0  0  0  0  0  0
  -11.1400   -2.5160    6.8400 H   0  0  0  0  0  0  0  0  0  0  0  0
  -10.3780   -4.5140    0.5410 H   0  0  0  0  0  0  0  0  0  0  0  0
   -9.3820   -5.6370    1.5390 H   0  0  0  0  0  0  0  0  0  0  0  0
  -11.1380   -5.9210    1.3450 H   0  0  0  0  0  0  0  0  0  0  0  0
   -8.4240   -3.4340    1.4630 H   0  0  0  0  0  0  0  0  0  0  0  0
  1  2  1  0  0  0  0
  1 27  1  0  0  0  0
  1 28  1  0  0  0  0
  2  3  1  0  0  0  0
  2 26  2  0  0  0  0
  3  4  2  0  0  0  0
  4  5  1  0  0  0  0
  4 16  1  0  0  0  0
  5  6  1  0  0  0  0
  5 15  1  0  0  0  0
  6  7  1  0  0  0  0
  6 29  1  0  0  0  0
  6 30  1  0  0  0  0
  7  8  1  0  0  0  0
  7 31  1  0  0  0  0
  7 32  1  0  0  0  0
  8  9  1  0  0  0  0
  8 14  1  0  0  0  0
  9 10  1  0  0  0  0
  9 13  2  0  0  0  0
 10 11  1  0  0  0  0
 10 12  1  0  0  0  0
 10 33  1  0  0  0  0
 11 34  1  0  0  0  0
 11 35  1  0  0  0  0
 11 36  1  0  0  0  0
 12 37  1  0  0  0  0
 12 38  1  0  0  0  0
 12 39  1  0  0  0  0
 14 15  1  0  0  0  0
 14 40  1  0  0  0  0
 14 41  1  0  0  0  0
 15 42  1  0  0  0  0
 15 43  1  0  0  0  0
 16 17  2  0  0  0  0
 17 18  1  0  0  0  0
 17 26  1  0  0  0  0
 18 19  2  0  0  0  0
 18 44  1  0  0  0  0
 19 20  1  0  0  0  0
 19 22  1  0  0  0  0
 20 21  1  0  0  0  0
 21 45  1  0  0  0  0
 21 46  1  0  0  0  0
 21 47  1  0  0  0  0
 22 23  1  0  0  0  0
 22 25  2  0  0  0  0
 23 24  1  0  0  0  0
 24 48  1  0  0  0  0
 24 49  1  0  0  0  0
 24 50  1  0  0  0  0
 25 26  1  0  0  0  0
 25 51  1  0  0  0  0
M  END
$$$$
ivp005
  MOE2018           3D

 51 53  0  0  0  0  0  0  0  0999 V2000
   -2.1400    6.6380    6.6070 C   0  0  0  0  0  0  0  0  0  0  0  0
   -3.6350    6.9330    6.7470 C   0  0  0  0  0  0  0  0  0  0  0  0
   -4.4760    5.6600    6.5680 C   0  0  0  0  0  0  0  0  0  0  0  0
   -4.4410    5.0660    5.1540 C   0  0  0  0  0  0  0  0  0  0  0  0
   -4.2620    5.8070    4.1950 O   0  0  0  0  0  0  0  0  0  0  0  0
   -4.6630    3.7520    4.9880 N   0  0  0  0  0  0  0  0  0  0  0  0
   -4.1100    3.0490    3.8180 C   0  0  0  0  0  0  0  0  0  0  0  0
   -5.2240    2.2110    3.1800 C   0  0  0  0  0  0  0  0  0  0  0  0
   -5.8150    1.3270    4.2110 N   0  0  0  0  0  0  0  0  0  0  0  0
   -6.3620    2.0770    5.3600 C   0  0  0  0  0  0  0  0  0  0  0  0
   -5.2110    2.8520    6.0130 C   0  0  0  0  0  0  0  0  0  0  0  0
   -6.5500    0.2490    3.7440 C   0  0  0  0  0  0  0  0  0  0  0  0
   -7.6120   -0.1120    4.4130 N   0  0  0  0  0  0  0  0  0  0  0  0
   -8.3490   -1.1570    3.9560 C   0  0  0  0  0  0  0  0  0  0  0  0
   -9.4990   -1.5620    4.6510 C   0  0  0  0  0  0  0  0  0  0  0  0
  -10.2480   -2.6240    4.1860 C   0  0  0  0  0  0  0  0  0  0  0  0
   -9.8610   -3.3110    3.0130 C   0  0  0  0  0  0  0  0  0  0  0  0
   -8.7310   -2.9220    2.3240 C   0  0  0  0  0  0  0  0  0  0  0  0
   -7.9670   -1.8310    2.7890 C   0  0  0  0  0  0  0  0  0  0  0  0
   -6.7960   -1.3390    2.1570 C   0  0  0  0  0  0  0  0  0  0  0  0
   -6.1130   -0.3450    2.6090 N   0  0  0  0  0  0  0  0  0  0  0  0
   -6.3130   -1.8760    1.0140 N   0  0  0  0  0  0  0  0  0  0  0  0
  -10.6280   -4.3730    2.5750 O   0  0  0  0  0  0  0  0  0  0  0  0
  -10.3610   -5.1690    1.4070 C   0  0  0  0  0  0  0  0  0  0  0  0
  -11.3810   -3.0360    4.8540 O   0  0  0  0  0  0  0  0  0  0  0  0
  -11.8980   -2.4380    6.0560 C   0  0  0  0  0  0  0  0  0  0  0  0
   -1.5730    7.5570    6.7620 H   0  0  0  0  0  0  0  0  0  0  0  0
   -1.9230    6.2620    5.6060 H   0  0  0  0  0  0  0  0  0  0  0  0
   -1.8280    5.9000    7.3470 H   0  0  0  0  0  0  0  0  0  0  0  0
   -3.8220    7.3470    7.7400 H   0  0  0  0  0  0  0  0  0  0  0  0
   -3.9320    7.6770    6.0040 H   0  0  0  0  0  0  0  0  0  0  0  0
   -4.1100    4.9240    7.2820 H   0  0  0  0  0  0  0  0  0  0  0  0
   -5.5150    5.8850    6.8050 H   0  0  0  0  0  0  0  0  0  0  0  0
   -3.3290    2.3760    4.1460 H   0  0  0  0  0  0  0  0  0  0  0  0
   -3.7520    3.7490    3.0750 H   0  0  0  0  0  0  0  0  0  0  0  0
   -4.7600    1.6390    2.3880 H   0  0  0  0  0  0  0  0  0  0  0  0
   -5.9850    2.8820    2.8030 H   0  0  0  0  0  0  0  0  0  0  0  0
   -7.1150    2.7750    5.0180 H   0  0  0  0  0  0  0  0  0  0  0  0
   -6.7400    1.3980    6.1140 H   0  0  0  0  0  0  0  0  0  0  0  0
   -5.6360    3.3990    6.8420 H   0  0  0  0  0  0  0  0  0  0  0  0
   -4.4520    2.1460    6.3240 H   0  0  0  0  0  0  0  0  0  0  0  0
   -9.7690   -1.0370    5.5270 H   0  0  0  0  0  0  0  0  0  0  0  0
   -8.4270   -3.4370    1.4540 H   0  0  0  0  0  0  0  0  0  0  0  0
   -6.9580   -2.3910    0.4060 H   0  0  0  0  0  0  0  0  0  0  0  0
   -5.5650   -1.3260    0.5710 H   0  0  0  0  0  0  0  0  0  0  0  0
   -9.3860   -5.6420    1.5280 H   0  0  0  0  0  0  0  0  0  0  0  0
  -11.1430   -5.9250    1.3380 H   0  0  0  0  0  0  0  0  0  0  0  0
  -10.3840   -4.5170    0.5340 H   0  0  0  0  0  0  0  0  0  0  0  0
  -12.1350   -1.3950    5.8480 H   0  0  0  0  0  0  0  0  0  0  0  0
  -11.1430   -2.5280    6.8380 H   0  0  0  0  0  0  0  0  0  0  0  0
  -12.7990   -2.9840    6.3350 H   0  0  0  0  0  0  0  0  0  0  0  0
  1  2  1  0  0  0  0
  1 27  1  0  0  0  0
  1 28  1  0  0  0  0
  1 29  1  0  0  0  0
  2  3  1  0  0  0  0
  2 30  1  0  0  0  0
  2 31  1  0  0  0  0
  3  4  1  0  0  0  0
  3 32  1  0  0  0  0
  3 33  1  0  0  0  0
  4  5  2  0  0  0  0
  4  6  1  0  0  0  0
  6  7  1  0  0  0  0
  6 11  1  0  0  0  0
  7  8  1  0  0  0  0
  7 34  1  0  0  0  0
  7 35  1  0  0  0  0
  8  9  1  0  0  0  0
  8 36  1  0  0  0  0
  8 37  1  0  0  0  0
  9 10  1  0  0  0  0
  9 12  1  0  0  0  0
 10 11  1  0  0  0  0
 10 38  1  0  0  0  0
 10 39  1  0  0  0  0
 11 40  1  0  0  0  0
 11 41  1  0  0  0  0
 12 13  1  0  0  0  0
 12 21  2  0  0  0  0
 13 14  2  0  0  0  0
 14 15  1  0  0  0  0
 14 19  1  0  0  0  0
 15 16  2  0  0  0  0
 15 42  1  0  0  0  0
 16 17  1  0  0  0  0
 16 25  1  0  0  0  0
 17 18  2  0  0  0  0
 17 23  1  0  0  0  0
 18 19  1  0  0  0  0
 18 43  1  0  0  0  0
 19 20  2  0  0  0  0
 20 21  1  0  0  0  0
 20 22  1  0  0  0  0
 22 44  1  0  0  0  0
 22 45  1  0  0  0  0
 23 24  1  0  0  0  0
 24 46  1  0  0  0  0
 24 47  1  0  0  0  0
 24 48  1  0  0  0  0
 25 26  1  0  0  0  0
 26 49  1  0  0  0  0
 26 50  1  0  0  0  0
 26 51  1  0  0  0  0
M  END
$$$$
ivp006
  MOE2018           3D

 49 52  0  0  0  0  0  0  0  0999 V2000
  -10.3610   -5.1680    1.4140 C   0  0  0  0  0  0  0  0  0  0  0  0
  -10.6280   -4.3710    2.5820 O   0  0  0  0  0  0  0  0  0  0  0  0
   -9.8590   -3.3090    3.0190 C   0  0  0  0  0  0  0  0  0  0  0  0
  -10.2460   -2.6210    4.1910 C   0  0  0  0  0  0  0  0  0  0  0  0
   -9.4960   -1.5590    4.6550 C   0  0  0  0  0  0  0  0  0  0  0  0
   -8.3460   -1.1530    3.9600 C   0  0  0  0  0  0  0  0  0  0  0  0
   -7.9660   -1.8290    2.7930 C   0  0  0  0  0  0  0  0  0  0  0  0
   -8.7300   -2.9210    2.3290 C   0  0  0  0  0  0  0  0  0  0  0  0
   -6.7960   -1.3380    2.1570 C   0  0  0  0  0  0  0  0  0  0  0  0
   -6.1140   -0.3420    2.6060 N   0  0  0  0  0  0  0  0  0  0  0  0
   -6.5520    0.2570    3.7380 C   0  0  0  0  0  0  0  0  0  0  0  0
   -7.6100   -0.1040    4.4130 N   0  0  0  0  0  0  0  0  0  0  0  0
   -5.8170    1.3410    4.1890 N   0  0  0  0  0  0  0  0  0  0  0  0
   -5.2900    2.2500    3.1470 C   0  0  0  0  0  0  0  0  0  0  0  0
   -4.1300    3.0550    3.7410 C   0  0  0  0  0  0  0  0  0  0  0  0
   -4.6080    3.7440    4.9520 N   0  0  0  0  0  0  0  0  0  0  0  0
   -5.1390    2.8450    5.9870 C   0  0  0  0  0  0  0  0  0  0  0  0
   -6.3160    2.0730    5.3700 C   0  0  0  0  0  0  0  0  0  0  0  0
   -4.3060    5.0640    5.1540 C   0  0  0  0  0  0  0  0  0  0  0  0
   -4.2020    5.7910    4.1840 O   0  0  0  0  0  0  0  0  0  0  0  0
   -4.0540    5.5770    6.5710 C   0  0  0  0  0  0  0  0  0  0  0  0
   -4.4810    6.9830    6.8740 C   0  0  0  0  0  0  0  0  0  0  0  0
   -3.0170    6.6570    6.7020 C   0  0  0  0  0  0  0  0  0  0  0  0
   -6.3120   -1.8770    1.0150 N   0  0  0  0  0  0  0  0  0  0  0  0
  -11.3790   -3.0320    4.8590 O   0  0  0  0  0  0  0  0  0  0  0  0
  -11.8960   -2.4340    6.0610 C   0  0  0  0  0  0  0  0  0  0  0  0
   -9.3860   -5.6420    1.5360 H   0  0  0  0  0  0  0  0  0  0  0  0
  -11.1430   -5.9250    1.3460 H   0  0  0  0  0  0  0  0  0  0  0  0
  -10.3840   -4.5180    0.5400 H   0  0  0  0  0  0  0  0  0  0  0  0
   -9.7660   -1.0340    5.5310 H   0  0  0  0  0  0  0  0  0  0  0  0
   -8.4260   -3.4370    1.4600 H   0  0  0  0  0  0  0  0  0  0  0  0
   -6.0670    2.9380    2.8410 H   0  0  0  0  0  0  0  0  0  0  0  0
   -4.8820    1.7010    2.3090 H   0  0  0  0  0  0  0  0  0  0  0  0
   -3.8000    3.7630    2.9920 H   0  0  0  0  0  0  0  0  0  0  0  0
   -3.3450    2.3620    4.0140 H   0  0  0  0  0  0  0  0  0  0  0  0
   -4.3760    2.1350    6.2800 H   0  0  0  0  0  0  0  0  0  0  0  0
   -5.5410    3.4020    6.8200 H   0  0  0  0  0  0  0  0  0  0  0  0
   -7.0840    2.7750    5.0680 H   0  0  0  0  0  0  0  0  0  0  0  0
   -6.6640    1.3810    6.1260 H   0  0  0  0  0  0  0  0  0  0  0  0
   -4.0820    4.8450    7.3630 H   0  0  0  0  0  0  0  0  0  0  0  0
   -4.8200    7.1800    7.8820 H   0  0  0  0  0  0  0  0  0  0  0  0
   -4.9490    7.5360    6.0690 H   0  0  0  0  0  0  0  0  0  0  0  0
   -2.5490    7.0080    5.7910 H   0  0  0  0  0  0  0  0  0  0  0  0
   -2.4150    6.6450    7.6010 H   0  0  0  0  0  0  0  0  0  0  0  0
   -5.5650   -1.3260    0.5720 H   0  0  0  0  0  0  0  0  0  0  0  0
   -6.9550   -2.3940    0.4090 H   0  0  0  0  0  0  0  0  0  0  0  0
  -12.7980   -2.9800    6.3390 H   0  0  0  0  0  0  0  0  0  0  0  0
  -12.1330   -1.3910    5.8530 H   0  0  0  0  0  0  0  0  0  0  0  0
  -11.1420   -2.5250    6.8430 H   0  0  0  0  0  0  0  0  0  0  0  0
  1  2  1  0  0  0  0
  1 27  1  0  0  0  0
  1 28  1  0  0  0  0
  1 29  1  0  0  0  0
  2  3  1  0  0  0  0
  3  4  1  0  0  0  0
  3  8  2  0  0  0  0
  4  5  2  0  0  0  0
  4 25  1  0  0  0  0
  5  6  1  0  0  0  0
  5 30  1  0  0  0  0
  6  7  1  0  0  0  0
  6 12  2  0  0  0  0
  7  8  1  0  0  0  0
  7  9  2  0  0  0  0
  8 31  1  0  0  0  0
  9 10  1  0  0  0  0
  9 24  1  0  0  0  0
 10 11  2  0  0  0  0
 11 12  1  0  0  0  0
 11 13  1  0  0  0  0
 13 14  1  0  0  0  0
 13 18  1  0  0  0  0
 14 15  1  0  0  0  0
 14 32  1  0  0  0  0
 14 33  1  0  0  0  0
 15 16  1  0  0  0  0
 15 34  1  0  0  0  0
 15 35  1  0  0  0  0
 16 17  1  0  0  0  0
 16 19  1  0  0  0  0
 17 18  1  0  0  0  0
 17 36  1  0  0  0  0
 17 37  1  0  0  0  0
 18 38  1  0  0  0  0
 18 39  1  0  0  0  0
 19 20  2  0  0  0  0
 19 21  1  0  0  0  0
 21 22  1  0  0  0  0
 21 23  1  0  0  0  0
 21 40  1  0  0  0  0
 22 23  1  0  0  0  0
 22 41  1  0  0  0  0
 22 42  1  0  0  0  0
 23 43  1  0  0  0  0
 23 44  1  0  0  0  0
 24 45  1  0  0  0  0
 24 46  1  0  0  0  0
 25 26  1  0  0  0  0
 26 47  1  0  0  0  0
 26 48  1  0  0  0  0
 26 49  1  0  0  0  0
M  END
$$$$
