tpp001_2gdi
  MOE2018           3D

 45 46  0  0  1  0  0  0  0  0999 V2000
  -13.0200   -7.6790   -0.1810 C   0  0  0  0  0  0  0  0  0  0  0  0
  -17.6430  -13.1960   -1.2040 C   0  0  0  0  0  0  0  0  0  0  0  0
  -21.9480  -15.3960    1.8430 P   0  0  3  0  0  0  0  0  0  0  0  0
  -24.4540  -16.2920    0.6700 P   0  0  0  0  0  0  0  0  0  0  0  0
  -15.8230  -12.5420    1.0550 C   0  0  0  0  0  0  0  0  0  0  0  0
  -15.6980  -10.0230    0.8840 C   0  0  0  0  0  0  0  0  0  0  0  0
  -15.0840  -11.2580    0.7180 C   0  0  0  0  0  0  0  0  0  0  0  0
  -13.7800  -11.2950    0.2520 C   0  0  0  0  0  0  0  0  0  0  0  0
  -13.1400  -12.4760    0.0730 N   0  0  0  0  0  0  0  0  0  0  0  0
  -13.1380  -10.1400   -0.0280 N   0  0  0  0  0  0  0  0  0  0  0  0
  -13.7570   -8.9510    0.1400 C   0  0  0  0  0  0  0  0  0  0  0  0
  -15.0330   -8.8960    0.5940 N   0  0  0  0  0  0  0  0  0  0  0  0
  -21.6240  -14.7390    3.1590 O   0  0  0  0  0  0  0  0  0  0  0  0
  -24.0310  -17.7080    0.9140 O   0  0  0  0  0  0  0  0  0  0  0  0
  -24.4110  -18.0400    1.7310 H   0  0  0  0  0  0  0  0  0  0  0  0
  -19.5710  -11.6270    2.0050 S   0  0  0  0  0  0  0  0  0  0  0  0
  -17.8580  -11.7740    2.2440 C   0  0  0  0  0  0  0  0  0  0  0  0
  -21.3980  -16.7730    1.6060 O   0  0  0  0  0  0  0  0  0  0  0  0
  -21.2470  -17.1880    2.4640 H   0  0  0  0  0  0  0  0  0  0  0  0
  -25.8550  -16.1050    1.1490 O   0  0  0  0  0  0  0  0  0  0  0  0
  -25.8770  -16.0580    2.1090 H   0  0  0  0  0  0  0  0  0  0  0  0
  -17.2640  -12.3040    1.1390 N   0  3  0  0  0  0  0  0  0  0  0  0
  -23.5550  -15.3510    1.6370 O   0  0  0  0  0  0  0  0  0  0  0  0
  -18.0960  -12.6040    0.1040 C   0  0  0  0  0  0  0  0  0  0  0  0
  -19.5120  -12.2620    0.4080 C   0  0  0  0  0  0  0  0  0  0  0  0
  -20.8120  -12.3760   -0.3430 C   0  0  0  0  0  0  0  0  0  0  0  0
  -21.8150  -13.1160    0.5280 C   0  0  0  0  0  0  0  0  0  0  0  0
  -21.3740  -14.4610    0.6680 O   0  0  0  0  0  0  0  0  0  0  0  0
  -12.0160   -7.9190   -0.5300 H   0  0  0  0  0  0  0  0  0  0  0  0
  -12.9560   -7.0600    0.7140 H   0  0  0  0  0  0  0  0  0  0  0  0
  -13.5550   -7.1360   -0.9600 H   0  0  0  0  0  0  0  0  0  0  0  0
  -16.5650  -13.3540   -1.1770 H   0  0  0  0  0  0  0  0  0  0  0  0
  -17.8910  -12.5130   -2.0170 H   0  0  0  0  0  0  0  0  0  0  0  0
  -18.1460  -14.1500   -1.3650 H   0  0  0  0  0  0  0  0  0  0  0  0
  -15.4660  -12.9190    2.0140 H   0  0  0  0  0  0  0  0  0  0  0  0
  -15.6270  -13.2810    0.2780 H   0  0  0  0  0  0  0  0  0  0  0  0
  -16.7140   -9.9710    1.2480 H   0  0  0  0  0  0  0  0  0  0  0  0
  -12.1890  -12.4890   -0.2680 H   0  0  0  0  0  0  0  0  0  0  0  0
  -13.6140  -13.3440    0.2800 H   0  0  0  0  0  0  0  0  0  0  0  0
  -17.3360  -11.4850    3.1440 H   0  0  0  0  0  0  0  0  0  0  0  0
  -20.6530  -12.9280   -1.2690 H   0  0  0  0  0  0  0  0  0  0  0  0
  -21.1910  -11.3800   -0.5740 H   0  0  0  0  0  0  0  0  0  0  0  0
  -22.7980  -13.0970    0.0570 H   0  0  0  0  0  0  0  0  0  0  0  0
  -21.8730  -12.6430    1.5080 H   0  0  0  0  0  0  0  0  0  0  0  0
  -24.2400  -15.7710   -0.7250 O   0  0  0  0  0  0  0  0  0  0  0  0
  1 11  1  0  0  0  0
  1 29  1  0  0  0  0
  1 30  1  0  0  0  0
  1 31  1  0  0  0  0
  2 24  1  0  0  0  0
  2 32  1  0  0  0  0
  2 33  1  0  0  0  0
  2 34  1  0  0  0  0
  3 13  2  0  0  0  0
  3 18  1  0  0  0  0
  3 23  1  0  0  0  0
  3 28  1  0  0  0  0
  4 14  1  0  0  0  0
  4 20  1  0  0  0  0
  4 23  1  0  0  0  0
  4 45  2  0  0  0  0
  5  7  1  0  0  0  0
  5 22  1  0  0  0  0
  5 35  1  0  0  0  0
  5 36  1  0  0  0  0
  6  7  1  0  0  0  0
  6 12  2  0  0  0  0
  6 37  1  0  0  0  0
  7  8  2  0  0  0  0
  8  9  1  0  0  0  0
  8 10  1  0  0  0  0
  9 38  1  0  0  0  0
  9 39  1  0  0  0  0
 10 11  2  0  0  0  0
 11 12  1  0  0  0  0
 14 15  1  0  0  0  0
 16 17  1  0  0  0  0
 16 25  1  0  0  0  0
 17 22  2  0  0  0  0
 17 40  1  0  0  0  0
 18 19  1  0  0  0  0
 20 21  1  0  0  0  0
 22 24  1  0  0  0  0
 24 25  2  0  0  0  0
 25 26  1  0  0  0  0
 26 27  1  0  0  0  0
 26 41  1  0  0  0  0
 26 42  1  0  0  0  0
 27 28  1  0  0  0  0
 27 43  1  0  0  0  0
 27 44  1  0  0  0  0
M  CHG  1  22   1
M  END
$$$$
tpp002_2hom
  MOE2018           3D

 40 41  0  0  0  0  0  0  0  0999 V2000
  -13.3440   -7.1640   -0.1570 C   0  0  0  0  0  0  0  0  0  0  0  0
  -18.2210  -12.6600   -1.1050 C   0  0  0  0  0  0  0  0  0  0  0  0
  -23.7200  -15.2730   -0.0880 P   0  0  0  0  0  0  0  0  0  0  0  0
  -15.2930   -8.4220    0.4290 N   0  0  0  0  0  0  0  0  0  0  0  0
  -22.8700  -16.4210   -0.4940 O   0  0  0  0  0  0  0  0  0  0  0  0
  -23.2890  -16.7890   -1.2820 H   0  0  0  0  0  0  0  0  0  0  0  0
  -19.6950  -11.6050    2.4900 S   0  0  0  0  0  0  0  0  0  0  0  0
  -18.0180  -11.6640    2.4100 C   0  0  0  0  0  0  0  0  0  0  0  0
  -13.9630   -8.4690    0.0700 C   0  0  0  0  0  0  0  0  0  0  0  0
  -24.8980  -15.0480   -0.9650 O   0  0  0  0  0  0  0  0  0  0  0  0
  -17.5040  -12.0150    1.2120 N   0  3  0  0  0  0  0  0  0  0  0  0
  -13.2900   -9.5790   -0.0780 N   0  0  0  0  0  0  0  0  0  0  0  0
  -24.0710  -15.3690    1.3650 O   0  0  0  0  0  0  0  0  0  0  0  0
  -25.0140  -15.1700    1.4200 H   0  0  0  0  0  0  0  0  0  0  0  0
  -18.5370  -12.2510    0.3040 C   0  0  0  0  0  0  0  0  0  0  0  0
  -13.9100  -10.8040    0.1480 C   0  0  0  0  0  0  0  0  0  0  0  0
  -13.2140  -11.9240   -0.0260 N   0  0  0  0  0  0  0  0  0  0  0  0
  -19.8020  -12.0840    0.8160 C   0  0  0  0  0  0  0  0  0  0  0  0
  -15.3010  -10.8280    0.5700 C   0  0  0  0  0  0  0  0  0  0  0  0
  -21.1020  -12.2730    0.1200 C   0  0  0  0  0  0  0  0  0  0  0  0
  -15.9260   -9.6000    0.6570 C   0  0  0  0  0  0  0  0  0  0  0  0
  -21.6370  -13.6380    0.3400 C   0  0  0  0  0  0  0  0  0  0  0  0
  -15.9900  -12.1260    0.9440 C   0  0  0  0  0  0  0  0  0  0  0  0
  -22.8840  -13.9510   -0.2820 O   0  0  0  0  0  0  0  0  0  0  0  0
  -14.0780   -6.3780    0.0210 H   0  0  0  0  0  0  0  0  0  0  0  0
  -12.9900   -7.1040   -1.1860 H   0  0  0  0  0  0  0  0  0  0  0  0
  -12.5030   -7.0370    0.5250 H   0  0  0  0  0  0  0  0  0  0  0  0
  -17.1400  -12.7140   -1.2340 H   0  0  0  0  0  0  0  0  0  0  0  0
  -18.6330  -11.9260   -1.7970 H   0  0  0  0  0  0  0  0  0  0  0  0
  -18.6600  -13.6370   -1.3070 H   0  0  0  0  0  0  0  0  0  0  0  0
  -17.3930  -11.4360    3.2610 H   0  0  0  0  0  0  0  0  0  0  0  0
  -13.6510  -12.8200    0.1360 H   0  0  0  0  0  0  0  0  0  0  0  0
  -12.2490  -11.8780   -0.3200 H   0  0  0  0  0  0  0  0  0  0  0  0
  -20.9590  -12.1160   -0.9490 H   0  0  0  0  0  0  0  0  0  0  0  0
  -21.8180  -11.5450    0.5010 H   0  0  0  0  0  0  0  0  0  0  0  0
  -16.9730   -9.5760    0.9200 H   0  0  0  0  0  0  0  0  0  0  0  0
  -21.7620  -13.7740    1.4140 H   0  0  0  0  0  0  0  0  0  0  0  0
  -20.8960  -14.3460   -0.0320 H   0  0  0  0  0  0  0  0  0  0  0  0
  -15.8440  -12.8320    0.1270 H   0  0  0  0  0  0  0  0  0  0  0  0
  -15.5160  -12.5110    1.8470 H   0  0  0  0  0  0  0  0  0  0  0  0
  1  9  1  0  0  0  0
  1 25  1  0  0  0  0
  1 26  1  0  0  0  0
  1 27  1  0  0  0  0
  2 15  1  0  0  0  0
  2 28  1  0  0  0  0
  2 29  1  0  0  0  0
  2 30  1  0  0  0  0
  3  5  1  0  0  0  0
  3 10  2  0  0  0  0
  3 13  1  0  0  0  0
  3 24  1  0  0  0  0
  4  9  1  0  0  0  0
  4 21  2  0  0  0  0
  5  6  1  0  0  0  0
  7  8  1  0  0  0  0
  7 18  1  0  0  0  0
  8 11  2  0  0  0  0
  8 31  1  0  0  0  0
  9 12  2  0  0  0  0
 11 15  1  0  0  0  0
 11 23  1  0  0  0  0
 12 16  1  0  0  0  0
 13 14  1  0  0  0  0
 15 18  2  0  0  0  0
 16 17  1  0  0  0  0
 16 19  2  0  0  0  0
 17 32  1  0  0  0  0
 17 33  1  0  0  0  0
 18 20  1  0  0  0  0
 19 21  1  0  0  0  0
 19 23  1  0  0  0  0
 20 22  1  0  0  0  0
 20 34  1  0  0  0  0
 20 35  1  0  0  0  0
 21 36  1  0  0  0  0
 22 24  1  0  0  0  0
 22 37  1  0  0  0  0
 22 38  1  0  0  0  0
 23 39  1  0  0  0  0
 23 40  1  0  0  0  0
M  CHG  1  11   1
M  END
$$$$
tpp003_2hoo
  MOE2018           3D

 56 57  0  0  1  0  0  0  0  0999 V2000
  -21.2240  -11.6690    3.0570 C   0  0  0  0  0  0  0  0  0  0  0  0
  -21.1590  -10.9550    4.4040 C   0  0  0  0  0  0  0  0  0  0  0  0
  -22.0770   -9.8950    4.7000 C   0  0  0  0  0  0  0  0  0  0  0  0
  -22.0100   -9.2340    5.9500 C   0  0  0  0  0  0  0  0  0  0  0  0
  -21.0470   -9.6170    6.9150 C   0  0  0  0  0  0  0  0  0  0  0  0
  -20.1400  -10.6610    6.6430 C   0  0  0  0  0  0  0  0  0  0  0  0
  -20.1890  -11.3290    5.4070 C   0  0  0  0  0  0  0  0  0  0  0  0
  -22.0720  -11.3410    2.2280 O   0  0  0  0  0  0  0  0  0  0  0  0
  -13.5940   -7.1270    0.4410 C   0  0  0  0  0  0  0  0  0  0  0  0
  -18.4270  -13.5030   -0.6290 C   0  0  0  0  0  0  0  0  0  0  0  0
  -24.1440  -15.1590    0.0690 P   0  0  0  0  0  0  0  0  0  0  0  0
  -15.5920   -8.4230    0.6870 N   0  0  0  0  0  0  0  0  0  0  0  0
  -23.6330  -15.7890    1.3020 O   0  0  0  0  0  0  0  0  0  0  0  0
  -23.7780  -16.7350    1.1880 H   0  0  0  0  0  0  0  0  0  0  0  0
  -20.3360  -12.6880    2.7560 S   0  0  0  0  0  0  0  0  0  0  0  0
  -17.8240  -11.8150    2.6210 C   0  0  0  0  0  0  0  0  0  0  0  0
  -18.5600  -11.0890    2.8550 H   0  0  0  0  0  0  0  0  0  0  0  0
  -14.2310   -8.4370    0.4800 C   0  0  0  0  0  0  0  0  0  0  0  0
  -24.7110  -16.1110   -0.9230 O   0  0  0  0  0  0  0  0  0  0  0  0
  -17.6520  -12.1610    1.3210 N   0  0  0  0  0  0  0  0  0  0  0  0
  -13.5310   -9.5170    0.3270 N   0  0  0  0  0  0  0  0  0  0  0  0
  -25.0590  -14.0440    0.4060 O   0  0  0  0  0  0  0  0  0  0  0  0
  -25.7540  -14.0670   -0.2610 H   0  0  0  0  0  0  0  0  0  0  0  0
  -18.7410  -12.9560    0.7370 C   0  0  3  0  0  0  0  0  0  0  0  0
  -14.1430  -10.7560    0.3580 C   0  0  0  0  0  0  0  0  0  0  0  0
  -13.3910  -11.8470    0.1930 N   0  0  0  0  0  0  0  0  0  0  0  0
  -20.0300  -13.2670    1.3480 C   0  0  3  0  0  0  0  0  0  0  0  0
  -15.5810  -10.8250    0.5640 C   0  0  0  0  0  0  0  0  0  0  0  0
  -17.0100  -12.1950    3.4360 O   0  0  0  0  0  0  0  0  0  0  0  0
  -21.0730  -14.1170    0.7150 C   0  0  0  0  0  0  0  0  0  0  0  0
  -16.2320   -9.6190    0.7250 C   0  0  0  0  0  0  0  0  0  0  0  0
  -22.0400  -13.5150   -0.2110 C   0  0  0  0  0  0  0  0  0  0  0  0
  -16.3110  -12.1460    0.5650 C   0  0  0  0  0  0  0  0  0  0  0  0
  -22.9530  -14.5050   -0.7150 O   0  0  0  0  0  0  0  0  0  0  0  0
  -22.8180   -9.6010    3.9710 H   0  0  0  0  0  0  0  0  0  0  0  0
  -22.6990   -8.4310    6.1690 H   0  0  0  0  0  0  0  0  0  0  0  0
  -21.0070   -9.1060    7.8660 H   0  0  0  0  0  0  0  0  0  0  0  0
  -19.4080  -10.9480    7.3840 H   0  0  0  0  0  0  0  0  0  0  0  0
  -19.4940  -12.1310    5.2050 H   0  0  0  0  0  0  0  0  0  0  0  0
  -14.3470   -6.3520    0.5890 H   0  0  0  0  0  0  0  0  0  0  0  0
  -13.1120   -6.9860   -0.5270 H   0  0  0  0  0  0  0  0  0  0  0  0
  -12.8470   -7.0630    1.2320 H   0  0  0  0  0  0  0  0  0  0  0  0
  -17.4320  -13.1760   -0.9310 H   0  0  0  0  0  0  0  0  0  0  0  0
  -19.1630  -13.1370   -1.3450 H   0  0  0  0  0  0  0  0  0  0  0  0
  -18.4590  -14.5920   -0.6000 H   0  0  0  0  0  0  0  0  0  0  0  0
  -19.1640  -12.0580    0.2870 H   0  0  0  0  0  0  0  0  0  0  0  0
  -13.8180  -12.7620    0.2090 H   0  0  0  0  0  0  0  0  0  0  0  0
  -12.3950  -11.7570    0.0520 H   0  0  0  0  0  0  0  0  0  0  0  0
  -19.5940  -14.1520    1.8100 H   0  0  0  0  0  0  0  0  0  0  0  0
  -21.6480  -14.5660    1.5240 H   0  0  0  0  0  0  0  0  0  0  0  0
  -20.5510  -14.8990    0.1630 H   0  0  0  0  0  0  0  0  0  0  0  0
  -17.2990   -9.6270    0.8890 H   0  0  0  0  0  0  0  0  0  0  0  0
  -21.5020  -13.0670   -1.0470 H   0  0  0  0  0  0  0  0  0  0  0  0
  -22.6040  -12.7440    0.3140 H   0  0  0  0  0  0  0  0  0  0  0  0
  -16.5060  -12.4230   -0.4710 H   0  0  0  0  0  0  0  0  0  0  0  0
  -15.6590  -12.8900    1.0230 H   0  0  0  0  0  0  0  0  0  0  0  0
  1  2  1  0  0  0  0
  1  8  2  0  0  0  0
  1 15  1  0  0  0  0
  2  3  1  0  0  0  0
  2  7  2  0  0  0  0
  3  4  2  0  0  0  0
  3 35  1  0  0  0  0
  4  5  1  0  0  0  0
  4 36  1  0  0  0  0
  5  6  2  0  0  0  0
  5 37  1  0  0  0  0
  6  7  1  0  0  0  0
  6 38  1  0  0  0  0
  7 39  1  0  0  0  0
  9 18  1  0  0  0  0
  9 40  1  0  0  0  0
  9 41  1  0  0  0  0
  9 42  1  0  0  0  0
 10 24  1  0  0  0  0
 10 43  1  0  0  0  0
 10 44  1  0  0  0  0
 10 45  1  0  0  0  0
 11 13  1  0  0  0  0
 11 19  2  0  0  0  0
 11 22  1  0  0  0  0
 11 34  1  0  0  0  0
 12 18  1  0  0  0  0
 12 31  2  0  0  0  0
 13 14  1  0  0  0  0
 15 27  1  0  0  0  0
 16 17  1  0  0  0  0
 16 20  1  0  0  0  0
 16 29  2  0  0  0  0
 18 21  2  0  0  0  0
 20 24  1  0  0  0  0
 20 33  1  0  0  0  0
 21 25  1  0  0  0  0
 22 23  1  0  0  0  0
 24 27  1  0  0  0  0
 24 46  1  0  0  0  0
 25 26  1  0  0  0  0
 25 28  2  0  0  0  0
 26 47  1  0  0  0  0
 26 48  1  0  0  0  0
 27 30  1  0  0  0  0
 27 49  1  0  0  0  0
 28 31  1  0  0  0  0
 28 33  1  0  0  0  0
 30 32  1  0  0  0  0
 30 50  1  0  0  0  0
 30 51  1  0  0  0  0
 31 52  1  0  0  0  0
 32 34  1  0  0  0  0
 32 53  1  0  0  0  0
 32 54  1  0  0  0  0
 33 55  1  0  0  0  0
 33 56  1  0  0  0  0
M  END
$$$$
tpp004_2hop
  MOE2018           3D

 38 39  0  0  0  0  0  0  0  0999 V2000
  -14.5210   -8.0240    0.5120 C   0  0  0  0  0  0  0  0  0  0  0  0
  -19.2330  -12.7950   -1.4160 C   0  0  0  0  0  0  0  0  0  0  0  0
  -22.1600  -13.0200   -0.5010 C   0  0  0  0  0  0  0  0  0  0  0  0
  -22.7280  -14.4240   -0.8870 C   0  0  0  0  0  0  0  0  0  0  0  0
  -21.7470  -15.2650   -1.5320 O   0  0  0  0  0  0  0  0  0  0  0  0
  -20.2480  -13.6850    2.7990 C   0  0  0  0  0  0  0  0  0  0  0  0
  -16.5160   -9.4690    0.5950 N   0  0  0  0  0  0  0  0  0  0  0  0
  -18.9120  -13.5910    2.3760 C   0  0  0  0  0  0  0  0  0  0  0  0
  -15.1680   -9.3830    0.5630 C   0  0  0  0  0  0  0  0  0  0  0  0
  -18.5790  -13.3110    1.0610 N   0  3  0  0  0  0  0  0  0  0  0  0
  -14.4060  -10.5110    0.5790 N   0  0  0  0  0  0  0  0  0  0  0  0
  -19.5920  -13.1070    0.0680 C   0  0  0  0  0  0  0  0  0  0  0  0
  -14.9830  -11.7650    0.6210 C   0  0  0  0  0  0  0  0  0  0  0  0
  -14.1880  -12.8930    0.6340 N   0  0  0  0  0  0  0  0  0  0  0  0
  -20.9960  -13.2030    0.4730 C   0  0  0  0  0  0  0  0  0  0  0  0
  -16.4170  -11.8860    0.6530 C   0  0  0  0  0  0  0  0  0  0  0  0
  -21.2900  -13.4920    1.8460 C   0  0  0  0  0  0  0  0  0  0  0  0
  -17.1600  -10.6750    0.6360 C   0  0  0  0  0  0  0  0  0  0  0  0
  -17.1140  -13.2410    0.6910 C   0  0  0  0  0  0  0  0  0  0  0  0
  -15.2930   -7.2540    0.5060 H   0  0  0  0  0  0  0  0  0  0  0  0
  -13.9190   -7.9420   -0.3930 H   0  0  0  0  0  0  0  0  0  0  0  0
  -13.8830   -7.8920    1.3860 H   0  0  0  0  0  0  0  0  0  0  0  0
  -18.1490  -12.7630   -1.5290 H   0  0  0  0  0  0  0  0  0  0  0  0
  -19.6570  -11.8310   -1.6970 H   0  0  0  0  0  0  0  0  0  0  0  0
  -19.6420  -13.5730   -2.0600 H   0  0  0  0  0  0  0  0  0  0  0  0
  -22.9430  -12.4270   -0.0280 H   0  0  0  0  0  0  0  0  0  0  0  0
  -21.8090  -12.5090   -1.3980 H   0  0  0  0  0  0  0  0  0  0  0  0
  -23.5690  -14.2850   -1.5670 H   0  0  0  0  0  0  0  0  0  0  0  0
  -23.0720  -14.9220    0.0190 H   0  0  0  0  0  0  0  0  0  0  0  0
  -21.4550  -14.8130   -2.3270 H   0  0  0  0  0  0  0  0  0  0  0  0
  -20.4820  -13.9000    3.8310 H   0  0  0  0  0  0  0  0  0  0  0  0
  -18.1220  -13.7410    3.0970 H   0  0  0  0  0  0  0  0  0  0  0  0
  -14.6120  -13.8090    0.6660 H   0  0  0  0  0  0  0  0  0  0  0  0
  -13.1820  -12.8020    0.6110 H   0  0  0  0  0  0  0  0  0  0  0  0
  -22.3200  -13.5650    2.1640 H   0  0  0  0  0  0  0  0  0  0  0  0
  -18.2390  -10.7070    0.6560 H   0  0  0  0  0  0  0  0  0  0  0  0
  -17.0160  -13.6770   -0.3030 H   0  0  0  0  0  0  0  0  0  0  0  0
  -16.5750  -13.8560    1.4120 H   0  0  0  0  0  0  0  0  0  0  0  0
  1  9  1  0  0  0  0
  1 20  1  0  0  0  0
  1 21  1  0  0  0  0
  1 22  1  0  0  0  0
  2 12  1  0  0  0  0
  2 23  1  0  0  0  0
  2 24  1  0  0  0  0
  2 25  1  0  0  0  0
  3  4  1  0  0  0  0
  3 15  1  0  0  0  0
  3 26  1  0  0  0  0
  3 27  1  0  0  0  0
  4  5  1  0  0  0  0
  4 28  1  0  0  0  0
  4 29  1  0  0  0  0
  5 30  1  0  0  0  0
  6  8  1  0  0  0  0
  6 17  2  0  0  0  0
  6 31  1  0  0  0  0
  7  9  1  0  0  0  0
  7 18  2  0  0  0  0
  8 10  2  0  0  0  0
  8 32  1  0  0  0  0
  9 11  2  0  0  0  0
 10 12  1  0  0  0  0
 10 19  1  0  0  0  0
 11 13  1  0  0  0  0
 12 15  2  0  0  0  0
 13 14  1  0  0  0  0
 13 16  2  0  0  0  0
 14 33  1  0  0  0  0
 14 34  1  0  0  0  0
 15 17  1  0  0  0  0
 16 18  1  0  0  0  0
 16 19  1  0  0  0  0
 17 35  1  0  0  0  0
 18 36  1  0  0  0  0
 19 37  1  0  0  0  0
 19 38  1  0  0  0  0
M  CHG  1  10   1
M  END
$$$$
tpp005_3d2v
  MOE2018           3D

 49 50  0  0  1  0  0  0  0  0999 V2000
  -13.6860   -7.7440    0.2410 C   0  0  0  0  0  0  0  0  0  0  0  0
  -18.0100  -12.5030   -0.9060 C   0  0  0  0  0  0  0  0  0  0  0  0
  -20.9060  -12.2280   -0.0740 C   0  0  0  0  0  0  0  0  0  0  0  0
  -21.0910  -13.5030   -0.8920 C   0  0  0  0  0  0  0  0  0  0  0  0
  -21.4590  -14.5980   -0.0440 O   0  0  0  0  0  0  0  0  0  0  0  0
  -22.9240  -14.6790    0.5980 P   0  0  3  0  0  0  0  0  0  0  0  0
  -25.1140  -15.8080   -0.8760 P   0  0  0  0  0  0  0  0  0  0  0  0
  -19.1420  -12.7430    3.2470 C   0  0  0  0  0  0  0  0  0  0  0  0
  -15.5550   -9.2380    0.9260 N   0  0  0  0  0  0  0  0  0  0  0  0
  -23.1030  -15.9760    1.5180 O   0  0  0  0  0  0  0  0  0  0  0  0
  -23.7460  -15.7610    2.2080 H   0  0  0  0  0  0  0  0  0  0  0  0
  -24.5900  -17.1830   -1.0080 O   0  0  0  0  0  0  0  0  0  0  0  0
  -24.4650  -17.3500   -1.9510 H   0  0  0  0  0  0  0  0  0  0  0  0
  -17.8080  -12.8740    2.8860 C   0  0  0  0  0  0  0  0  0  0  0  0
  -14.2940   -9.1270    0.4800 C   0  0  0  0  0  0  0  0  0  0  0  0
  -23.3170  -13.3750    1.4840 O   0  0  0  0  0  0  0  0  0  0  0  0
  -25.8900  -15.3580   -2.2140 O   0  0  0  0  0  0  0  0  0  0  0  0
  -17.4450  -12.7910    1.5410 N   0  0  0  0  0  0  0  0  0  0  0  0
  -13.5550  -10.2190    0.2400 N   0  0  0  0  0  0  0  0  0  0  0  0
  -23.9810  -14.6960   -0.6470 O   0  0  0  0  0  0  0  0  0  0  0  0
  -26.1750  -15.7280    0.2760 O   0  0  0  0  0  0  0  0  0  0  0  0
  -26.8550  -15.1080   -0.0240 H   0  0  0  0  0  0  0  0  0  0  0  0
  -18.4280  -12.5870    0.5660 C   0  0  0  0  0  0  0  0  0  0  0  0
  -14.0640  -11.4400    0.4400 C   0  0  0  0  0  0  0  0  0  0  0  0
  -13.3200  -12.5210    0.1990 N   0  0  0  0  0  0  0  0  0  0  0  0
  -19.7690  -12.4520    0.9290 C   0  0  0  0  0  0  0  0  0  0  0  0
  -15.3660  -11.5810    0.9050 C   0  0  0  0  0  0  0  0  0  0  0  0
  -20.1120  -12.5370    2.2740 C   0  0  0  0  0  0  0  0  0  0  0  0
  -16.1000  -10.4240    1.1410 C   0  0  0  0  0  0  0  0  0  0  0  0
  -16.0230  -12.9390    1.1590 C   0  0  0  0  0  0  0  0  0  0  0  0
  -14.4210   -6.9770    0.4850 H   0  0  0  0  0  0  0  0  0  0  0  0
  -13.3970   -7.6500   -0.8060 H   0  0  0  0  0  0  0  0  0  0  0  0
  -12.8070   -7.6190    0.8730 H   0  0  0  0  0  0  0  0  0  0  0  0
  -16.9300  -12.6310   -0.9850 H   0  0  0  0  0  0  0  0  0  0  0  0
  -18.2910  -11.5300   -1.3080 H   0  0  0  0  0  0  0  0  0  0  0  0
  -18.5120  -13.2880   -1.4720 H   0  0  0  0  0  0  0  0  0  0  0  0
  -21.8270  -11.9980    0.4610 H   0  0  0  0  0  0  0  0  0  0  0  0
  -20.6540  -11.4000   -0.7360 H   0  0  0  0  0  0  0  0  0  0  0  0
  -20.1560  -13.7420   -1.4000 H   0  0  0  0  0  0  0  0  0  0  0  0
  -21.8760  -13.3430   -1.6320 H   0  0  0  0  0  0  0  0  0  0  0  0
  -19.4270  -12.8010    4.2870 H   0  0  0  0  0  0  0  0  0  0  0  0
  -17.0550  -13.0390    3.6420 H   0  0  0  0  0  0  0  0  0  0  0  0
  -13.7030  -13.4430    0.3550 H   0  0  0  0  0  0  0  0  0  0  0  0
  -12.3740  -12.4180   -0.1390 H   0  0  0  0  0  0  0  0  0  0  0  0
  -20.6110  -11.6010    2.5270 H   0  0  0  0  0  0  0  0  0  0  0  0
  -20.8200  -13.3610    2.3620 H   0  0  0  0  0  0  0  0  0  0  0  0
  -17.1160  -10.4940    1.5000 H   0  0  0  0  0  0  0  0  0  0  0  0
  -15.9610  -13.5380    0.2500 H   0  0  0  0  0  0  0  0  0  0  0  0
  -15.4910  -13.4450    1.9650 H   0  0  0  0  0  0  0  0  0  0  0  0
  1 15  1  0  0  0  0
  1 31  1  0  0  0  0
  1 32  1  0  0  0  0
  1 33  1  0  0  0  0
  2 23  1  0  0  0  0
  2 34  1  0  0  0  0
  2 35  1  0  0  0  0
  2 36  1  0  0  0  0
  3  4  1  0  0  0  0
  3 26  1  0  0  0  0
  3 37  1  0  0  0  0
  3 38  1  0  0  0  0
  4  5  1  0  0  0  0
  4 39  1  0  0  0  0
  4 40  1  0  0  0  0
  5  6  1  0  0  0  0
  6 10  1  0  0  0  0
  6 16  2  0  0  0  0
  6 20  1  0  0  0  0
  7 12  1  0  0  0  0
  7 17  2  0  0  0  0
  7 20  1  0  0  0  0
  7 21  1  0  0  0  0
  8 14  2  0  0  0  0
  8 28  1  0  0  0  0
  8 41  1  0  0  0  0
  9 15  1  0  0  0  0
  9 29  2  0  0  0  0
 10 11  1  0  0  0  0
 12 13  1  0  0  0  0
 14 18  1  0  0  0  0
 14 42  1  0  0  0  0
 15 19  2  0  0  0  0
 18 23  1  0  0  0  0
 18 30  1  0  0  0  0
 19 24  1  0  0  0  0
 21 22  1  0  0  0  0
 23 26  2  0  0  0  0
 24 25  1  0  0  0  0
 24 27  2  0  0  0  0
 25 43  1  0  0  0  0
 25 44  1  0  0  0  0
 26 28  1  0  0  0  0
 27 29  1  0  0  0  0
 27 30  1  0  0  0  0
 28 45  1  0  0  0  0
 28 46  1  0  0  0  0
 29 47  1  0  0  0  0
 30 48  1  0  0  0  0
 30 49  1  0  0  0  0
M  END
$$$$
tpp006_3d2x
  MOE2018           3D

 45 46  0  0  1  0  0  0  0  0999 V2000
  -17.9870  -12.4850   -0.9760 C   0  0  0  0  0  0  0  0  0  0  0  0
  -14.0860  -11.1540    0.7300 C   0  0  0  0  0  0  0  0  0  0  0  0
  -15.4320  -11.3180    1.0330 C   0  0  0  0  0  0  0  0  0  0  0  0
  -16.0800  -12.6920    1.2100 C   0  0  0  0  0  0  0  0  0  0  0  0
  -18.4070  -12.4620    0.4950 C   0  0  0  0  0  0  0  0  0  0  0  0
  -13.8800   -7.3520    0.5440 C   0  0  0  0  0  0  0  0  0  0  0  0
  -14.4230   -8.7720    0.7180 C   0  0  0  0  0  0  0  0  0  0  0  0
  -16.2180  -10.1790    1.1680 C   0  0  0  0  0  0  0  0  0  0  0  0
  -17.9830  -12.5140    2.7340 C   0  0  0  0  0  0  0  0  0  0  0  0
  -19.7320  -12.3360    0.8950 C   0  0  0  0  0  0  0  0  0  0  0  0
  -21.0120  -12.2080    0.0660 C   0  0  0  0  0  0  0  0  0  0  0  0
  -21.2270  -13.4360   -0.8210 C   0  0  0  0  0  0  0  0  0  0  0  0
  -13.5660   -9.8650    0.5660 N   0  0  0  0  0  0  0  0  0  0  0  0
  -12.5720   -9.7580    0.3420 H   0  0  0  0  0  0  0  0  0  0  0  0
  -17.5150  -12.5470    1.4840 N   0  0  0  0  0  0  0  0  0  0  0  0
  -15.7160   -8.9670    1.0140 N   0  0  0  0  0  0  0  0  0  0  0  0
  -13.3630  -12.1430    0.6260 O   0  0  0  0  0  0  0  0  0  0  0  0
  -22.7080  -13.5990    1.9190 O   0  0  0  0  0  0  0  0  0  0  0  0
  -22.9160  -13.9590    2.7900 H   0  0  0  0  0  0  0  0  0  0  0  0
  -24.8580  -15.8730   -2.1200 O   0  0  0  0  0  0  0  0  0  0  0  0
  -21.3630  -14.6150   -0.0240 O   0  0  0  0  0  0  0  0  0  0  0  0
  -23.9410  -14.6440   -0.0680 O   0  0  0  0  0  0  0  0  0  0  0  0
  -24.2920  -17.1900    0.0170 O   0  0  0  0  0  0  0  0  0  0  0  0
  -24.8680  -17.8940   -0.2900 H   0  0  0  0  0  0  0  0  0  0  0  0
  -22.6650  -16.1550    1.5740 O   0  0  0  0  0  0  0  0  0  0  0  0
  -26.3300  -15.6230   -0.0330 O   0  0  0  0  0  0  0  0  0  0  0  0
  -26.7160  -15.0200   -0.6840 H   0  0  0  0  0  0  0  0  0  0  0  0
  -19.7170  -12.3590    2.6370 S   0  0  0  0  0  0  0  0  0  0  0  0
  -22.6650  -14.8400    0.8940 P   0  0  3  0  0  0  0  0  0  0  0  0
  -24.8230  -15.9150   -0.5130 P   0  0  0  0  0  0  0  0  0  0  0  0
  -16.9040  -12.5910   -1.0430 H   0  0  0  0  0  0  0  0  0  0  0  0
  -18.2910  -11.5540   -1.4550 H   0  0  0  0  0  0  0  0  0  0  0  0
  -18.4660  -13.3260   -1.4780 H   0  0  0  0  0  0  0  0  0  0  0  0
  -15.6050  -13.2090    2.0440 H   0  0  0  0  0  0  0  0  0  0  0  0
  -15.9450  -13.2730    0.2980 H   0  0  0  0  0  0  0  0  0  0  0  0
  -14.6850   -6.6340    0.6980 H   0  0  0  0  0  0  0  0  0  0  0  0
  -13.4790   -7.2370   -0.4630 H   0  0  0  0  0  0  0  0  0  0  0  0
  -13.0890   -7.1730    1.2730 H   0  0  0  0  0  0  0  0  0  0  0  0
  -17.2660  -10.2880    1.4050 H   0  0  0  0  0  0  0  0  0  0  0  0
  -17.5620  -11.6620    3.2670 H   0  0  0  0  0  0  0  0  0  0  0  0
  -17.7200  -13.4350    3.2550 H   0  0  0  0  0  0  0  0  0  0  0  0
  -20.9390  -11.3230   -0.5660 H   0  0  0  0  0  0  0  0  0  0  0  0
  -21.8620  -12.1040    0.7400 H   0  0  0  0  0  0  0  0  0  0  0  0
  -20.3720  -13.5510   -1.4870 H   0  0  0  0  0  0  0  0  0  0  0  0
  -22.1320  -13.2970   -1.4120 H   0  0  0  0  0  0  0  0  0  0  0  0
  1  5  1  0  0  0  0
  1 31  1  0  0  0  0
  1 32  1  0  0  0  0
  1 33  1  0  0  0  0
  2  3  1  0  0  0  0
  2 13  1  0  0  0  0
  2 17  2  0  0  0  0
  3  4  1  0  0  0  0
  3  8  2  0  0  0  0
  4 15  1  0  0  0  0
  4 34  1  0  0  0  0
  4 35  1  0  0  0  0
  5 10  2  0  0  0  0
  5 15  1  0  0  0  0
  6  7  1  0  0  0  0
  6 36  1  0  0  0  0
  6 37  1  0  0  0  0
  6 38  1  0  0  0  0
  7 13  1  0  0  0  0
  7 16  2  0  0  0  0
  8 16  1  0  0  0  0
  8 39  1  0  0  0  0
  9 15  1  0  0  0  0
  9 28  1  0  0  0  0
  9 40  1  0  0  0  0
  9 41  1  0  0  0  0
 10 11  1  0  0  0  0
 10 28  1  0  0  0  0
 11 12  1  0  0  0  0
 11 42  1  0  0  0  0
 11 43  1  0  0  0  0
 12 21  1  0  0  0  0
 12 44  1  0  0  0  0
 12 45  1  0  0  0  0
 13 14  1  0  0  0  0
 18 19  1  0  0  0  0
 18 29  1  0  0  0  0
 20 30  2  0  0  0  0
 21 29  1  0  0  0  0
 22 29  1  0  0  0  0
 22 30  1  0  0  0  0
 23 24  1  0  0  0  0
 23 30  1  0  0  0  0
 25 29  2  0  0  0  0
 26 27  1  0  0  0  0
 26 30  1  0  0  0  0
M  END
$$$$
tpp007_4nya
  MOE2018           3D

 21 21  0  0  0  0  0  0  0  0999 V2000
  -15.6230  -12.2070    1.1190 C   0  0  0  0  0  0  0  0  0  0  0  0
  -12.8100   -7.6780   -0.2420 C   0  0  0  0  0  0  0  0  0  0  0  0
  -13.0370  -12.3070    0.3850 N   0  0  0  0  0  0  0  0  0  0  0  0
  -16.4750  -12.8270    0.0950 N   0  0  0  0  0  0  0  0  0  0  0  0
  -17.5570  -12.5340    0.1200 N   0  3  0  0  0  0  0  0  0  0  0  0
  -18.6370  -12.2370    0.1410 N   0  0  0  0  0  0  0  0  0  0  0  0
  -18.7940  -11.4500   -0.4670 H   0  0  0  0  0  0  0  0  0  0  0  0
  -14.8320   -8.7030    0.4160 N   0  0  0  0  0  0  0  0  0  0  0  0
  -13.5410   -8.8160    0.0760 C   0  0  0  0  0  0  0  0  0  0  0  0
  -12.9600  -10.0200   -0.0260 N   0  0  0  0  0  0  0  0  0  0  0  0
  -13.6540  -11.1410    0.2200 C   0  0  0  0  0  0  0  0  0  0  0  0
  -14.9930  -11.0880    0.5870 C   0  0  0  0  0  0  0  0  0  0  0  0
  -15.6030   -9.8420    0.6770 C   0  0  0  0  0  0  0  0  0  0  0  0
  -14.8710  -12.9240    1.4480 H   0  0  0  0  0  0  0  0  0  0  0  0
  -16.2370  -11.9080    1.9690 H   0  0  0  0  0  0  0  0  0  0  0  0
  -13.4340   -6.7950   -0.1030 H   0  0  0  0  0  0  0  0  0  0  0  0
  -12.4850   -7.7340   -1.2810 H   0  0  0  0  0  0  0  0  0  0  0  0
  -11.9380   -7.6130    0.4090 H   0  0  0  0  0  0  0  0  0  0  0  0
  -13.5420  -13.0970    0.7600 H   0  0  0  0  0  0  0  0  0  0  0  0
  -12.0630  -12.4030    0.1350 H   0  0  0  0  0  0  0  0  0  0  0  0
  -16.6460   -9.7550    0.9420 H   0  0  0  0  0  0  0  0  0  0  0  0
  1  4  1  0  0  0  0
  1 12  1  0  0  0  0
  1 14  1  0  0  0  0
  1 15  1  0  0  0  0
  2  9  1  0  0  0  0
  2 16  1  0  0  0  0
  2 17  1  0  0  0  0
  2 18  1  0  0  0  0
  3 11  1  0  0  0  0
  3 19  1  0  0  0  0
  3 20  1  0  0  0  0
  4  5  2  0  0  0  0
  5  6  2  0  0  0  0
  6  7  1  0  0  0  0
  8  9  1  0  0  0  0
  8 13  2  0  0  0  0
  9 10  2  0  0  0  0
 10 11  1  0  0  0  0
 11 12  2  0  0  0  0
 12 13  1  0  0  0  0
 13 21  1  0  0  0  0
M  CHG  1   5   1
M  END
$$$$
tpp008_4nyb
  MOE2018           3D

 22 23  0  0  0  0  0  0  0  0999 V2000
  -14.0240   -9.4720    0.1590 C   0  0  0  0  0  0  0  0  0  0  0  0
  -14.3770  -10.7270    0.4240 C   0  0  0  0  0  0  0  0  0  0  0  0
  -15.6320  -11.0070    0.9560 C   0  0  0  0  0  0  0  0  0  0  0  0
  -16.0260  -12.3260    1.1450 C   0  0  0  0  0  0  0  0  0  0  0  0
  -14.8890   -8.4630    0.2270 C   0  0  0  0  0  0  0  0  0  0  0  0
  -13.5190  -11.7660    0.0850 C   0  0  0  0  0  0  0  0  0  0  0  0
  -13.9160  -13.0860    0.2680 C   0  0  0  0  0  0  0  0  0  0  0  0
  -15.1750  -13.3670    0.7900 C   0  0  0  0  0  0  0  0  0  0  0  0
  -15.6220  -14.6810    0.8550 C   0  0  0  0  0  0  0  0  0  0  0  0
  -12.5150   -8.0510   -0.2990 N   0  0  0  0  0  0  0  0  0  0  0  0
  -12.7590   -9.1490   -0.1260 N   0  0  0  0  0  0  0  0  0  0  0  0
  -14.9260  -15.5310   -0.1210 N   0  0  0  0  0  0  0  0  0  0  0  0
  -13.9000   -7.1320   -0.1330 S   0  0  0  0  0  0  0  0  0  0  0  0
  -16.2990  -10.2000    1.2220 H   0  0  0  0  0  0  0  0  0  0  0  0
  -16.9950  -12.5430    1.5690 H   0  0  0  0  0  0  0  0  0  0  0  0
  -15.9450   -8.4850    0.4520 H   0  0  0  0  0  0  0  0  0  0  0  0
  -12.5420  -11.5480   -0.3210 H   0  0  0  0  0  0  0  0  0  0  0  0
  -13.2480  -13.8930    0.0050 H   0  0  0  0  0  0  0  0  0  0  0  0
  -16.6920  -14.7030    0.6460 H   0  0  0  0  0  0  0  0  0  0  0  0
  -15.4400  -15.0690    1.8570 H   0  0  0  0  0  0  0  0  0  0  0  0
  -15.0900  -15.1780   -1.0530 H   0  0  0  0  0  0  0  0  0  0  0  0
  -13.9350  -15.5230    0.0720 H   0  0  0  0  0  0  0  0  0  0  0  0
  1  2  1  0  0  0  0
  1  5  2  0  0  0  0
  1 11  1  0  0  0  0
  2  3  2  0  0  0  0
  2  6  1  0  0  0  0
  3  4  1  0  0  0  0
  3 14  1  0  0  0  0
  4  8  2  0  0  0  0
  4 15  1  0  0  0  0
  5 13  1  0  0  0  0
  5 16  1  0  0  0  0
  6  7  2  0  0  0  0
  6 17  1  0  0  0  0
  7  8  1  0  0  0  0
  7 18  1  0  0  0  0
  8  9  1  0  0  0  0
  9 12  1  0  0  0  0
  9 19  1  0  0  0  0
  9 20  1  0  0  0  0
 10 11  2  0  0  0  0
 10 13  1  0  0  0  0
 12 21  1  0  0  0  0
 12 22  1  0  0  0  0
M  END
$$$$
tpp009_4nyc
  MOE2018           3D

 15 16  0  0  0  0  0  0  0  0999 V2000
  -12.8820   -8.1210   -0.0330 C   0  0  0  0  0  0  0  0  0  0  0  0
  -14.0590   -7.3920    0.0830 C   0  0  0  0  0  0  0  0  0  0  0  0
  -16.1260  -11.4740    1.0450 C   0  0  0  0  0  0  0  0  0  0  0  0
  -16.3240  -10.1680    0.8660 C   0  0  0  0  0  0  0  0  0  0  0  0
  -14.1190  -10.1090    0.4230 C   0  0  0  0  0  0  0  0  0  0  0  0
  -15.2600   -9.4250    0.5420 C   0  0  0  0  0  0  0  0  0  0  0  0
  -17.5660   -9.7020    0.9480 N   0  0  0  0  0  0  0  0  0  0  0  0
  -12.9540   -9.5090    0.1400 N   0  0  0  0  0  0  0  0  0  0  0  0
  -15.2370   -8.0940    0.3620 N   0  0  0  0  0  0  0  0  0  0  0  0
  -14.4780  -11.7490    0.7410 S   0  0  0  0  0  0  0  0  0  0  0  0
  -11.9430   -7.6340   -0.2490 H   0  0  0  0  0  0  0  0  0  0  0  0
  -14.0650   -6.3190   -0.0380 H   0  0  0  0  0  0  0  0  0  0  0  0
  -16.8650  -12.2090    1.3270 H   0  0  0  0  0  0  0  0  0  0  0  0
  -17.7530   -8.7280    0.7590 H   0  0  0  0  0  0  0  0  0  0  0  0
  -18.3230  -10.3220    1.1990 H   0  0  0  0  0  0  0  0  0  0  0  0
  1  2  1  0  0  0  0
  1  8  2  0  0  0  0
  1 11  1  0  0  0  0
  2  9  2  0  0  0  0
  2 12  1  0  0  0  0
  3  4  2  0  0  0  0
  3 10  1  0  0  0  0
  3 13  1  0  0  0  0
  4  6  1  0  0  0  0
  4  7  1  0  0  0  0
  5  6  2  0  0  0  0
  5  8  1  0  0  0  0
  5 10  1  0  0  0  0
  6  9  1  0  0  0  0
  7 14  1  0  0  0  0
  7 15  1  0  0  0  0
M  END
$$$$
tpp010_4nyd
  MOE2018           3D

 14 15  0  0  0  0  0  0  0  0999 V2000
  -14.3120  -11.3350    0.2840 N   0  0  0  0  0  0  0  0  0  0  0  0
  -14.7560  -12.2340    0.4050 H   0  0  0  0  0  0  0  0  0  0  0  0
  -13.0190  -11.2610    0.0300 C   0  0  0  0  0  0  0  0  0  0  0  0
  -12.4260  -12.1600   -0.0530 H   0  0  0  0  0  0  0  0  0  0  0  0
  -12.4250  -10.0050   -0.1310 N   0  0  0  0  0  0  0  0  0  0  0  0
  -13.1720   -8.8960   -0.0410 C   0  0  0  0  0  0  0  0  0  0  0  0
  -14.4770   -8.9780    0.2090 C   0  0  0  0  0  0  0  0  0  0  0  0
  -15.0630  -10.1590    0.3850 C   0  0  0  0  0  0  0  0  0  0  0  0
  -16.2630  -10.2320    0.6440 O   0  0  0  0  0  0  0  0  0  0  0  0
  -14.9760   -7.7450    0.1680 N   0  0  0  0  0  0  0  0  0  0  0  0
  -15.9430   -7.4930    0.3160 H   0  0  0  0  0  0  0  0  0  0  0  0
  -13.9840   -6.9020   -0.1010 C   0  0  0  0  0  0  0  0  0  0  0  0
  -12.8680   -7.6150   -0.2220 N   0  0  0  0  0  0  0  0  0  0  0  0
  -14.0690   -5.8300   -0.2030 H   0  0  0  0  0  0  0  0  0  0  0  0
  1  2  1  0  0  0  0
  1  3  1  0  0  0  0
  1  8  1  0  0  0  0
  3  4  1  0  0  0  0
  3  5  2  0  0  0  0
  5  6  1  0  0  0  0
  6  7  2  0  0  0  0
  6 13  1  0  0  0  0
  7  8  1  0  0  0  0
  7 10  1  0  0  0  0
  8  9  2  0  0  0  0
 10 11  1  0  0  0  0
 10 12  1  0  0  0  0
 12 13  2  0  0  0  0
 12 14  1  0  0  0  0
M  END
$$$$
tpp011_4nyg
  MOE2018           3D

 35 36  0  0  0  0  0  0  0  0999 V2000
  -13.9810   -9.3520    0.1310 C   0  0  0  0  0  0  0  0  0  0  0  0
  -20.1690  -14.3420   -1.6910 C   0  0  0  0  0  0  0  0  0  0  0  0
  -16.2860  -10.1820    0.3740 N   0  0  0  0  0  0  0  0  0  0  0  0
  -25.1450  -14.6570   -0.1500 O   0  0  0  0  0  0  0  0  0  0  0  0
  -21.3240  -12.6470    1.6650 S   0  0  0  0  0  0  0  0  0  0  0  0
  -19.5960  -12.7740    1.6590 C   0  0  0  0  0  0  0  0  0  0  0  0
  -15.0010  -10.4660    0.1460 C   0  0  0  0  0  0  0  0  0  0  0  0
  -19.3340  -13.3470    0.4910 N   0  3  0  0  0  0  0  0  0  0  0  0
  -14.6110  -11.7230   -0.0780 N   0  0  0  0  0  0  0  0  0  0  0  0
  -20.3690  -13.6760   -0.3410 C   0  0  0  0  0  0  0  0  0  0  0  0
  -15.5160  -12.7500   -0.0850 C   0  0  0  0  0  0  0  0  0  0  0  0
  -15.0830  -14.0540   -0.3240 N   0  0  0  0  0  0  0  0  0  0  0  0
  -21.6440  -13.3880    0.0810 C   0  0  0  0  0  0  0  0  0  0  0  0
  -16.8970  -12.4830    0.1440 C   0  0  0  0  0  0  0  0  0  0  0  0
  -22.9880  -13.6210   -0.5740 C   0  0  0  0  0  0  0  0  0  0  0  0
  -17.2420  -11.1480    0.3790 C   0  0  0  0  0  0  0  0  0  0  0  0
  -23.8660  -14.4100    0.4160 C   0  0  0  0  0  0  0  0  0  0  0  0
  -17.9050  -13.6440    0.1200 C   0  0  0  0  0  0  0  0  0  0  0  0
  -14.4770   -8.4020    0.3320 H   0  0  0  0  0  0  0  0  0  0  0  0
  -13.5010   -9.3120   -0.8470 H   0  0  0  0  0  0  0  0  0  0  0  0
  -13.2290   -9.5380    0.8970 H   0  0  0  0  0  0  0  0  0  0  0  0
  -19.1040  -14.4970   -1.8660 H   0  0  0  0  0  0  0  0  0  0  0  0
  -20.5770  -13.7040   -2.4750 H   0  0  0  0  0  0  0  0  0  0  0  0
  -20.6820  -15.3040   -1.7010 H   0  0  0  0  0  0  0  0  0  0  0  0
  -25.6580  -15.1480    0.4960 H   0  0  0  0  0  0  0  0  0  0  0  0
  -18.8990  -12.4620    2.4230 H   0  0  0  0  0  0  0  0  0  0  0  0
  -15.7490  -14.8130   -0.3350 H   0  0  0  0  0  0  0  0  0  0  0  0
  -14.1030  -14.2390   -0.4860 H   0  0  0  0  0  0  0  0  0  0  0  0
  -22.8580  -14.1940   -1.4920 H   0  0  0  0  0  0  0  0  0  0  0  0
  -23.4580  -12.6650   -0.8060 H   0  0  0  0  0  0  0  0  0  0  0  0
  -18.2720  -10.8840    0.5650 H   0  0  0  0  0  0  0  0  0  0  0  0
  -23.3840  -15.3610    0.6450 H   0  0  0  0  0  0  0  0  0  0  0  0
  -23.9840  -13.8320    1.3320 H   0  0  0  0  0  0  0  0  0  0  0  0
  -17.9100  -14.0480   -0.8920 H   0  0  0  0  0  0  0  0  0  0  0  0
  -17.5410  -14.4030    0.8120 H   0  0  0  0  0  0  0  0  0  0  0  0
  1  7  1  0  0  0  0
  1 19  1  0  0  0  0
  1 20  1  0  0  0  0
  1 21  1  0  0  0  0
  2 10  1  0  0  0  0
  2 22  1  0  0  0  0
  2 23  1  0  0  0  0
  2 24  1  0  0  0  0
  3  7  1  0  0  0  0
  3 16  2  0  0  0  0
  4 17  1  0  0  0  0
  4 25  1  0  0  0  0
  5  6  1  0  0  0  0
  5 13  1  0  0  0  0
  6  8  2  0  0  0  0
  6 26  1  0  0  0  0
  7  9  2  0  0  0  0
  8 10  1  0  0  0  0
  8 18  1  0  0  0  0
  9 11  1  0  0  0  0
 10 13  2  0  0  0  0
 11 12  1  0  0  0  0
 11 14  2  0  0  0  0
 12 27  1  0  0  0  0
 12 28  1  0  0  0  0
 13 15  1  0  0  0  0
 14 16  1  0  0  0  0
 14 18  1  0  0  0  0
 15 17  1  0  0  0  0
 15 29  1  0  0  0  0
 15 30  1  0  0  0  0
 16 31  1  0  0  0  0
 17 32  1  0  0  0  0
 17 33  1  0  0  0  0
 18 34  1  0  0  0  0
 18 35  1  0  0  0  0
M  CHG  1   8   1
M  END
$$$$
