fmn001_3f4e
  MOE2018           3D

 52 54  0  0  1  0  0  0  0  0999 V2000
   26.3040   43.2750   16.6100 P   0  0  0  0  0  0  0  0  0  0  0  0
   24.9970   42.9770   15.9150 O   0  0  0  0  0  0  0  0  0  0  0  0
   25.2350   42.7540   15.0060 H   0  0  0  0  0  0  0  0  0  0  0  0
   27.3440   43.3870   15.5330 O   0  0  0  0  0  0  0  0  0  0  0  0
   26.1720   44.5540   17.3960 O   0  0  0  0  0  0  0  0  0  0  0  0
   26.6110   45.2380   16.8760 H   0  0  0  0  0  0  0  0  0  0  0  0
   27.9160   42.0590   18.2600 C   0  0  0  0  0  0  0  0  0  0  0  0
   26.6560   42.1070   17.6430 O   0  0  0  0  0  0  0  0  0  0  0  0
   28.0590   40.6850   18.9050 C   0  0  3  0  0  0  0  0  0  0  0  0
   27.3220   40.6680   20.1090 O   0  0  0  0  0  0  0  0  0  0  0  0
   27.5200   39.6170   17.9620 C   0  0  3  0  0  0  0  0  0  0  0  0
   28.4230   39.4850   16.8930 O   0  0  0  0  0  0  0  0  0  0  0  0
   27.2780   38.2690   18.6510 C   0  0  3  0  0  0  0  0  0  0  0  0
   26.8160   37.3120   17.7230 O   0  0  0  0  0  0  0  0  0  0  0  0
   28.5430   37.7490   19.3150 C   0  0  0  0  0  0  0  0  0  0  0  0
   28.5000   35.0190   18.6140 N   0  0  0  0  0  0  0  0  0  0  0  0
   28.4670   33.6910   18.2280 C   0  0  0  0  0  0  0  0  0  0  0  0
   28.7460   33.3690   17.0720 O   0  0  0  0  0  0  0  0  0  0  0  0
   28.1140   32.7180   19.1420 N   0  0  0  0  0  0  0  0  0  0  0  0
   28.0830   31.7390   18.8450 H   0  0  0  0  0  0  0  0  0  0  0  0
   27.7910   33.0670   20.4370 C   0  0  0  0  0  0  0  0  0  0  0  0
   27.8270   34.3890   20.8320 C   0  0  0  0  0  0  0  0  0  0  0  0
   27.4790   32.2190   21.2630 O   0  0  0  0  0  0  0  0  0  0  0  0
   27.5410   36.0340   22.5420 C   0  0  0  0  0  0  0  0  0  0  0  0
   27.5100   34.7140   22.1400 N   0  0  0  0  0  0  0  0  0  0  0  0
   27.2160   36.3670   23.8560 C   0  0  0  0  0  0  0  0  0  0  0  0
   27.2450   37.6980   24.2660 C   0  0  0  0  0  0  0  0  0  0  0  0
   26.9010   38.0460   25.6880 C   0  0  0  0  0  0  0  0  0  0  0  0
   27.6020   38.6930   23.3500 C   0  0  0  0  0  0  0  0  0  0  0  0
   27.6540   40.1370   23.7510 C   0  0  0  0  0  0  0  0  0  0  0  0
   27.9200   38.3520   22.0380 C   0  0  0  0  0  0  0  0  0  0  0  0
   27.8910   37.0250   21.6240 C   0  0  0  0  0  0  0  0  0  0  0  0
   28.1810   35.3710   19.9140 C   0  0  0  0  0  0  0  0  0  0  0  0
   28.2040   36.6880   20.3150 N   0  0  0  0  0  0  0  0  0  0  0  0
   27.9880   42.8360   19.0210 H   0  0  0  0  0  0  0  0  0  0  0  0
   28.7000   42.2050   17.5170 H   0  0  0  0  0  0  0  0  0  0  0  0
   29.1100   40.4810   19.1100 H   0  0  0  0  0  0  0  0  0  0  0  0
   26.4050   40.8500   19.8910 H   0  0  0  0  0  0  0  0  0  0  0  0
   26.5410   39.9350   17.6030 H   0  0  0  0  0  0  0  0  0  0  0  0
   29.2660   39.2050   17.2580 H   0  0  0  0  0  0  0  0  0  0  0  0
   26.5200   38.4300   19.4180 H   0  0  0  0  0  0  0  0  0  0  0  0
   27.5030   37.1920   17.0630 H   0  0  0  0  0  0  0  0  0  0  0  0
   29.0480   38.5720   19.8210 H   0  0  0  0  0  0  0  0  0  0  0  0
   29.2020   37.3300   18.5550 H   0  0  0  0  0  0  0  0  0  0  0  0
   26.9410   35.5920   24.5570 H   0  0  0  0  0  0  0  0  0  0  0  0
   26.6530   37.1360   26.2350 H   0  0  0  0  0  0  0  0  0  0  0  0
   26.0460   38.7220   25.7000 H   0  0  0  0  0  0  0  0  0  0  0  0
   27.7550   38.5320   26.1600 H   0  0  0  0  0  0  0  0  0  0  0  0
   27.3800   40.2320   24.8020 H   0  0  0  0  0  0  0  0  0  0  0  0
   26.9560   40.7090   23.1400 H   0  0  0  0  0  0  0  0  0  0  0  0
   28.6640   40.5190   23.6030 H   0  0  0  0  0  0  0  0  0  0  0  0
   28.1920   39.1260   21.3350 H   0  0  0  0  0  0  0  0  0  0  0  0
  1  2  1  0  0  0  0
  1  4  2  0  0  0  0
  1  5  1  0  0  0  0
  1  8  1  0  0  0  0
  2  3  1  0  0  0  0
  5  6  1  0  0  0  0
  7  8  1  0  0  0  0
  7  9  1  0  0  0  0
  7 35  1  0  0  0  0
  7 36  1  0  0  0  0
  9 10  1  0  0  0  0
  9 11  1  0  0  0  0
  9 37  1  0  0  0  0
 10 38  1  0  0  0  0
 11 12  1  0  0  0  0
 11 13  1  0  0  0  0
 11 39  1  0  0  0  0
 12 40  1  0  0  0  0
 13 14  1  0  0  0  0
 13 15  1  0  0  0  0
 13 41  1  0  0  0  0
 14 42  1  0  0  0  0
 15 34  1  0  0  0  0
 15 43  1  0  0  0  0
 15 44  1  0  0  0  0
 16 17  1  0  0  0  0
 16 33  2  0  0  0  0
 17 18  2  0  0  0  0
 17 19  1  0  0  0  0
 19 20  1  0  0  0  0
 19 21  1  0  0  0  0
 21 22  1  0  0  0  0
 21 23  2  0  0  0  0
 22 25  2  0  0  0  0
 22 33  1  0  0  0  0
 24 25  1  0  0  0  0
 24 26  1  0  0  0  0
 24 32  2  0  0  0  0
 26 27  2  0  0  0  0
 26 45  1  0  0  0  0
 27 28  1  0  0  0  0
 27 29  1  0  0  0  0
 28 46  1  0  0  0  0
 28 47  1  0  0  0  0
 28 48  1  0  0  0  0
 29 30  1  0  0  0  0
 29 31  2  0  0  0  0
 30 49  1  0  0  0  0
 30 50  1  0  0  0  0
 30 51  1  0  0  0  0
 31 32  1  0  0  0  0
 31 52  1  0  0  0  0
 32 34  1  0  0  0  0
 33 34  1  0  0  0  0
M  END
$$$$
fmn002_3f4g
  MOE2018           3D

 47 49  0  0  1  0  0  0  0  0999 V2000
   28.8100   42.0970   17.6840 C   0  0  0  0  0  0  0  0  0  0  0  0
   28.6280   42.3160   16.2770 O   0  0  0  0  0  0  0  0  0  0  0  0
   27.9270   40.9450   18.1550 C   0  0  3  0  0  0  0  0  0  0  0  0
   26.5530   41.3380   18.0580 O   0  0  0  0  0  0  0  0  0  0  0  0
   28.1490   39.6720   17.3340 C   0  0  3  0  0  0  0  0  0  0  0  0
   29.5220   39.5800   16.9260 O   0  0  0  0  0  0  0  0  0  0  0  0
   27.7280   38.4160   18.1040 C   0  0  3  0  0  0  0  0  0  0  0  0
   27.1440   37.4610   17.2110 O   0  0  0  0  0  0  0  0  0  0  0  0
   28.9050   37.7640   18.8180 C   0  0  0  0  0  0  0  0  0  0  0  0
   28.5850   34.9730   18.1250 N   0  0  0  0  0  0  0  0  0  0  0  0
   28.4490   33.6650   17.7630 C   0  0  0  0  0  0  0  0  0  0  0  0
   28.7160   33.3260   16.5860 O   0  0  0  0  0  0  0  0  0  0  0  0
   28.0340   32.7190   18.6270 N   0  0  0  0  0  0  0  0  0  0  0  0
   27.9480   31.7570   18.2890 H   0  0  0  0  0  0  0  0  0  0  0  0
   27.7280   33.0030   19.9020 C   0  0  0  0  0  0  0  0  0  0  0  0
   27.8470   34.4050   20.3700 C   0  0  0  0  0  0  0  0  0  0  0  0
   27.3440   32.1040   20.6850 O   0  0  0  0  0  0  0  0  0  0  0  0
   27.6720   36.0460   22.0530 C   0  0  0  0  0  0  0  0  0  0  0  0
   27.5530   34.7610   21.6410 N   0  0  0  0  0  0  0  0  0  0  0  0
   27.3650   36.3780   23.3690 C   0  0  0  0  0  0  0  0  0  0  0  0
   27.4830   37.6930   23.8100 C   0  0  0  0  0  0  0  0  0  0  0  0
   27.1450   38.0200   25.2430 C   0  0  0  0  0  0  0  0  0  0  0  0
   27.9440   38.7560   22.8630 C   0  0  0  0  0  0  0  0  0  0  0  0
   28.0830   40.1930   23.3050 C   0  0  0  0  0  0  0  0  0  0  0  0
   28.2510   38.4190   21.5470 C   0  0  0  0  0  0  0  0  0  0  0  0
   28.1340   37.1020   21.1070 C   0  0  0  0  0  0  0  0  0  0  0  0
   28.3100   35.4000   19.3800 C   0  0  0  0  0  0  0  0  0  0  0  0
   28.4400   36.7500   19.7700 N   0  0  0  0  0  0  0  0  0  0  0  0
   28.5410   43.0030   18.2270 H   0  0  0  0  0  0  0  0  0  0  0  0
   29.8540   41.8530   17.8790 H   0  0  0  0  0  0  0  0  0  0  0  0
   27.7030   42.5280   16.1340 H   0  0  0  0  0  0  0  0  0  0  0  0
   28.1940   40.7210   19.1880 H   0  0  0  0  0  0  0  0  0  0  0  0
   26.3690   41.5230   17.1340 H   0  0  0  0  0  0  0  0  0  0  0  0
   27.5180   39.7330   16.4470 H   0  0  0  0  0  0  0  0  0  0  0  0
   30.0580   39.5270   17.7210 H   0  0  0  0  0  0  0  0  0  0  0  0
   27.0000   38.7290   18.8520 H   0  0  0  0  0  0  0  0  0  0  0  0
   27.8160   37.2130   16.5710 H   0  0  0  0  0  0  0  0  0  0  0  0
   29.4650   38.5290   19.3560 H   0  0  0  0  0  0  0  0  0  0  0  0
   29.5530   37.2910   18.0800 H   0  0  0  0  0  0  0  0  0  0  0  0
   27.0330   35.6110   24.0530 H   0  0  0  0  0  0  0  0  0  0  0  0
   26.8330   37.1120   25.7590 H   0  0  0  0  0  0  0  0  0  0  0  0
   26.3350   38.7490   25.2680 H   0  0  0  0  0  0  0  0  0  0  0  0
   28.0230   38.4350   25.7380 H   0  0  0  0  0  0  0  0  0  0  0  0
   27.8040   40.2790   24.3550 H   0  0  0  0  0  0  0  0  0  0  0  0
   27.4280   40.8230   22.7030 H   0  0  0  0  0  0  0  0  0  0  0  0
   29.1160   40.5150   23.1760 H   0  0  0  0  0  0  0  0  0  0  0  0
   28.5830   39.1850   20.8620 H   0  0  0  0  0  0  0  0  0  0  0  0
  1  2  1  0  0  0  0
  1  3  1  0  0  0  0
  1 29  1  0  0  0  0
  1 30  1  0  0  0  0
  2 31  1  0  0  0  0
  3  4  1  0  0  0  0
  3  5  1  0  0  0  0
  3 32  1  0  0  0  0
  4 33  1  0  0  0  0
  5  6  1  0  0  0  0
  5  7  1  0  0  0  0
  5 34  1  0  0  0  0
  6 35  1  0  0  0  0
  7  8  1  0  0  0  0
  7  9  1  0  0  0  0
  7 36  1  0  0  0  0
  8 37  1  0  0  0  0
  9 28  1  0  0  0  0
  9 38  1  0  0  0  0
  9 39  1  0  0  0  0
 10 11  1  0  0  0  0
 10 27  2  0  0  0  0
 11 12  2  0  0  0  0
 11 13  1  0  0  0  0
 13 14  1  0  0  0  0
 13 15  1  0  0  0  0
 15 16  1  0  0  0  0
 15 17  2  0  0  0  0
 16 19  2  0  0  0  0
 16 27  1  0  0  0  0
 18 19  1  0  0  0  0
 18 20  1  0  0  0  0
 18 26  2  0  0  0  0
 20 21  2  0  0  0  0
 20 40  1  0  0  0  0
 21 22  1  0  0  0  0
 21 23  1  0  0  0  0
 22 41  1  0  0  0  0
 22 42  1  0  0  0  0
 22 43  1  0  0  0  0
 23 24  1  0  0  0  0
 23 25  2  0  0  0  0
 24 44  1  0  0  0  0
 24 45  1  0  0  0  0
 24 46  1  0  0  0  0
 25 26  1  0  0  0  0
 25 47  1  0  0  0  0
 26 28  1  0  0  0  0
 27 28  1  0  0  0  0
M  END
$$$$
fmn003_3f4h
  MOE2018           3D

 52 54  0  0  1  0  0  0  0  0999 V2000
   28.3630   42.0440   16.9520 C   0  0  0  0  0  0  0  0  0  0  0  0
   29.2230   42.1190   15.8100 O   0  0  0  0  0  0  0  0  0  0  0  0
   28.7500   40.8370   17.7950 C   0  0  3  0  0  0  0  0  0  0  0  0
   28.2520   41.0270   19.1160 O   0  0  0  0  0  0  0  0  0  0  0  0
   28.1790   39.5590   17.1940 C   0  0  3  0  0  0  0  0  0  0  0  0
   29.1790   39.0120   16.3420 O   0  0  0  0  0  0  0  0  0  0  0  0
   27.7280   38.5090   18.2140 C   0  0  3  0  0  0  0  0  0  0  0  0
   27.0490   37.4640   17.5170 O   0  0  0  0  0  0  0  0  0  0  0  0
   28.8820   37.8860   18.9970 C   0  0  0  0  0  0  0  0  0  0  0  0
   28.5650   35.1840   18.2400 N   0  0  0  0  0  0  0  0  0  0  0  0
   28.4290   33.8870   17.8430 C   0  0  0  0  0  0  0  0  0  0  0  0
   28.7140   33.5490   16.6670 O   0  0  0  0  0  0  0  0  0  0  0  0
   27.9800   32.9470   18.7120 N   0  0  0  0  0  0  0  0  0  0  0  0
   27.6590   33.2760   19.9890 C   0  0  0  0  0  0  0  0  0  0  0  0
   27.7940   34.5940   20.4090 C   0  0  0  0  0  0  0  0  0  0  0  0
   27.2410   32.4030   20.7890 O   0  0  0  0  0  0  0  0  0  0  0  0
   27.6140   36.2100   22.0860 C   0  0  0  0  0  0  0  0  0  0  0  0
   27.4810   34.9310   21.6790 N   0  0  0  0  0  0  0  0  0  0  0  0
   27.2900   36.5480   23.3950 C   0  0  0  0  0  0  0  0  0  0  0  0
   27.4190   37.8570   23.8450 C   0  0  0  0  0  0  0  0  0  0  0  0
   27.0490   38.1540   25.2750 C   0  0  0  0  0  0  0  0  0  0  0  0
   27.8810   38.8490   22.9710 C   0  0  0  0  0  0  0  0  0  0  0  0
   28.0330   40.1560   23.3420 N   0  0  0  0  0  0  0  0  0  0  0  0
   28.2030   38.4940   21.6550 C   0  0  0  0  0  0  0  0  0  0  0  0
   28.0740   37.1830   21.1990 C   0  0  0  0  0  0  0  0  0  0  0  0
   28.2580   35.5640   19.5140 C   0  0  0  0  0  0  0  0  0  0  0  0
   28.3840   36.8520   19.9250 N   0  0  0  0  0  0  0  0  0  0  0  0
   28.5180   41.1260   22.3780 C   0  0  0  0  0  0  0  0  0  0  0  0
   27.7240   40.6320   24.6800 C   0  0  0  0  0  0  0  0  0  0  0  0
   27.3290   41.9420   16.6230 H   0  0  0  0  0  0  0  0  0  0  0  0
   28.4670   42.9520   17.5460 H   0  0  0  0  0  0  0  0  0  0  0  0
   29.1100   41.3090   15.3080 H   0  0  0  0  0  0  0  0  0  0  0  0
   29.8350   40.7400   17.8180 H   0  0  0  0  0  0  0  0  0  0  0  0
   27.2970   41.1080   19.0570 H   0  0  0  0  0  0  0  0  0  0  0  0
   27.2690   39.8270   16.6570 H   0  0  0  0  0  0  0  0  0  0  0  0
   29.9420   38.8040   16.8860 H   0  0  0  0  0  0  0  0  0  0  0  0
   27.0850   39.0180   18.9320 H   0  0  0  0  0  0  0  0  0  0  0  0
   27.6760   37.0670   16.9080 H   0  0  0  0  0  0  0  0  0  0  0  0
   29.3890   38.6640   19.5670 H   0  0  0  0  0  0  0  0  0  0  0  0
   29.5840   37.4320   18.2980 H   0  0  0  0  0  0  0  0  0  0  0  0
   27.8830   31.9900   18.4050 H   0  0  0  0  0  0  0  0  0  0  0  0
   26.9340   35.7840   24.0710 H   0  0  0  0  0  0  0  0  0  0  0  0
   26.7180   37.2370   25.7630 H   0  0  0  0  0  0  0  0  0  0  0  0
   26.2440   38.8880   25.2970 H   0  0  0  0  0  0  0  0  0  0  0  0
   27.9180   38.5520   25.8000 H   0  0  0  0  0  0  0  0  0  0  0  0
   28.5600   39.2550   20.9770 H   0  0  0  0  0  0  0  0  0  0  0  0
   28.7060   40.6290   21.4260 H   0  0  0  0  0  0  0  0  0  0  0  0
   29.4430   41.5710   22.7450 H   0  0  0  0  0  0  0  0  0  0  0  0
   27.7690   41.9060   22.2390 H   0  0  0  0  0  0  0  0  0  0  0  0
   27.3730   39.7990   25.2900 H   0  0  0  0  0  0  0  0  0  0  0  0
   26.9470   41.3940   24.6240 H   0  0  0  0  0  0  0  0  0  0  0  0
   28.6200   41.0600   25.1300 H   0  0  0  0  0  0  0  0  0  0  0  0
  1  2  1  0  0  0  0
  1  3  1  0  0  0  0
  1 30  1  0  0  0  0
  1 31  1  0  0  0  0
  2 32  1  0  0  0  0
  3  4  1  0  0  0  0
  3  5  1  0  0  0  0
  3 33  1  0  0  0  0
  4 34  1  0  0  0  0
  5  6  1  0  0  0  0
  5  7  1  0  0  0  0
  5 35  1  0  0  0  0
  6 36  1  0  0  0  0
  7  8  1  0  0  0  0
  7  9  1  0  0  0  0
  7 37  1  0  0  0  0
  8 38  1  0  0  0  0
  9 27  1  0  0  0  0
  9 39  1  0  0  0  0
  9 40  1  0  0  0  0
 10 11  1  0  0  0  0
 10 26  2  0  0  0  0
 11 12  2  0  0  0  0
 11 13  1  0  0  0  0
 13 14  1  0  0  0  0
 13 41  1  0  0  0  0
 14 15  1  0  0  0  0
 14 16  2  0  0  0  0
 15 18  2  0  0  0  0
 15 26  1  0  0  0  0
 17 18  1  0  0  0  0
 17 19  1  0  0  0  0
 17 25  2  0  0  0  0
 19 20  2  0  0  0  0
 19 42  1  0  0  0  0
 20 21  1  0  0  0  0
 20 22  1  0  0  0  0
 21 43  1  0  0  0  0
 21 44  1  0  0  0  0
 21 45  1  0  0  0  0
 22 23  1  0  0  0  0
 22 24  2  0  0  0  0
 23 28  1  0  0  0  0
 23 29  1  0  0  0  0
 24 25  1  0  0  0  0
 24 46  1  0  0  0  0
 25 27  1  0  0  0  0
 26 27  1  0  0  0  0
 28 47  1  0  0  0  0
 28 48  1  0  0  0  0
 28 49  1  0  0  0  0
 29 50  1  0  0  0  0
 29 51  1  0  0  0  0
 29 52  1  0  0  0  0
M  END
$$$$
fmn004
  MOE2018           3D

 50 53  0  0  1  0  0  0  0  0999 V2000
   27.8280   40.8580   17.6440 C   0  0  0  0  0  0  0  0  0  0  0  0
   27.5170   39.4850   17.0250 C   0  0  3  0  0  0  0  0  0  0  0  0
   27.3410   38.4400   18.1530 C   0  0  0  0  0  0  0  0  0  0  0  0
   28.6450   38.0310   18.8540 C   0  0  0  0  0  0  0  0  0  0  0  0
   28.3910   36.9710   19.8330 N   0  0  0  0  0  0  0  0  0  0  0  0
   27.9690   37.2590   21.1470 C   0  0  0  0  0  0  0  0  0  0  0  0
   27.8630   38.5630   21.6640 C   0  0  0  0  0  0  0  0  0  0  0  0
   27.4300   38.8170   22.9820 C   0  0  0  0  0  0  0  0  0  0  0  0
   27.3380   40.2400   23.4640 C   0  0  0  0  0  0  0  0  0  0  0  0
   27.0920   37.7400   23.8170 C   0  0  0  0  0  0  0  0  0  0  0  0
   26.6270   37.9470   25.2300 C   0  0  0  0  0  0  0  0  0  0  0  0
   27.1970   36.4370   23.3120 C   0  0  0  0  0  0  0  0  0  0  0  0
   27.6240   36.1860   22.0030 C   0  0  0  0  0  0  0  0  0  0  0  0
   27.7030   34.8350   21.6150 N   0  0  0  0  0  0  0  0  0  0  0  0
   28.0330   34.5680   20.3830 C   0  0  0  0  0  0  0  0  0  0  0  0
   28.1210   33.2220   19.8320 C   0  0  0  0  0  0  0  0  0  0  0  0
   28.0260   32.1640   20.4420 O   0  0  0  0  0  0  0  0  0  0  0  0
   28.3180   33.0770   18.4950 N   0  0  0  0  0  0  0  0  0  0  0  0
   28.3480   32.1340   18.0990 H   0  0  0  0  0  0  0  0  0  0  0  0
   28.4620   34.1240   17.6490 C   0  0  0  0  0  0  0  0  0  0  0  0
   28.5740   33.8320   16.4750 O   0  0  0  0  0  0  0  0  0  0  0  0
   28.4790   35.4150   18.1210 N   0  0  0  0  0  0  0  0  0  0  0  0
   28.2960   35.6550   19.3860 C   0  0  0  0  0  0  0  0  0  0  0  0
   28.4670   39.0460   15.9110 C   0  0  0  0  0  0  0  0  0  0  0  0
   29.4360   39.9040   15.3590 C   0  0  0  0  0  0  0  0  0  0  0  0
   30.2810   39.4720   14.3320 C   0  0  0  0  0  0  0  0  0  0  0  0
   30.1680   38.1790   13.8430 C   0  0  0  0  0  0  0  0  0  0  0  0
   30.9820   37.7720   12.8600 F   0  0  0  0  0  0  0  0  0  0  0  0
   29.2170   37.3110   14.3560 C   0  0  0  0  0  0  0  0  0  0  0  0
   28.3660   37.7460   15.3750 C   0  0  0  0  0  0  0  0  0  0  0  0
   27.0990   41.0790   18.4240 H   0  0  0  0  0  0  0  0  0  0  0  0
   27.7770   41.6250   16.8710 H   0  0  0  0  0  0  0  0  0  0  0  0
   28.8290   40.8440   18.0760 H   0  0  0  0  0  0  0  0  0  0  0  0
   26.5720   39.5780   16.4890 H   0  0  0  0  0  0  0  0  0  0  0  0
   26.8920   37.5460   17.7210 H   0  0  0  0  0  0  0  0  0  0  0  0
   26.6690   38.8580   18.9020 H   0  0  0  0  0  0  0  0  0  0  0  0
   29.0650   38.8980   19.3650 H   0  0  0  0  0  0  0  0  0  0  0  0
   29.3540   37.6690   18.1100 H   0  0  0  0  0  0  0  0  0  0  0  0
   28.1220   39.3980   21.0300 H   0  0  0  0  0  0  0  0  0  0  0  0
   27.6440   40.9150   22.6640 H   0  0  0  0  0  0  0  0  0  0  0  0
   27.9940   40.3750   24.3240 H   0  0  0  0  0  0  0  0  0  0  0  0
   26.3100   40.4600   23.7520 H   0  0  0  0  0  0  0  0  0  0  0  0
   26.6050   39.0140   25.4530 H   0  0  0  0  0  0  0  0  0  0  0  0
   27.3120   37.4470   25.9150 H   0  0  0  0  0  0  0  0  0  0  0  0
   25.6270   37.5310   25.3480 H   0  0  0  0  0  0  0  0  0  0  0  0
   26.9420   35.6040   23.9500 H   0  0  0  0  0  0  0  0  0  0  0  0
   29.5290   40.9120   15.7350 H   0  0  0  0  0  0  0  0  0  0  0  0
   31.0200   40.1440   13.9210 H   0  0  0  0  0  0  0  0  0  0  0  0
   29.1340   36.3050   13.9710 H   0  0  0  0  0  0  0  0  0  0  0  0
   27.6150   37.0720   15.7600 H   0  0  0  0  0  0  0  0  0  0  0  0
  1  2  1  0  0  0  0
  1 31  1  0  0  0  0
  1 32  1  0  0  0  0
  1 33  1  0  0  0  0
  2  3  1  0  0  0  0
  2 24  1  0  0  0  0
  2 34  1  0  0  0  0
  3  4  1  0  0  0  0
  3 35  1  0  0  0  0
  3 36  1  0  0  0  0
  4  5  1  0  0  0  0
  4 37  1  0  0  0  0
  4 38  1  0  0  0  0
  5  6  1  0  0  0  0
  5 23  1  0  0  0  0
  6  7  1  0  0  0  0
  6 13  2  0  0  0  0
  7  8  2  0  0  0  0
  7 39  1  0  0  0  0
  8  9  1  0  0  0  0
  8 10  1  0  0  0  0
  9 40  1  0  0  0  0
  9 41  1  0  0  0  0
  9 42  1  0  0  0  0
 10 11  1  0  0  0  0
 10 12  2  0  0  0  0
 11 43  1  0  0  0  0
 11 44  1  0  0  0  0
 11 45  1  0  0  0  0
 12 13  1  0  0  0  0
 12 46  1  0  0  0  0
 13 14  1  0  0  0  0
 14 15  2  0  0  0  0
 15 16  1  0  0  0  0
 15 23  1  0  0  0  0
 16 17  2  0  0  0  0
 16 18  1  0  0  0  0
 18 19  1  0  0  0  0
 18 20  1  0  0  0  0
 20 21  2  0  0  0  0
 20 22  1  0  0  0  0
 22 23  2  0  0  0  0
 24 25  1  0  0  0  0
 24 30  2  0  0  0  0
 25 26  2  0  0  0  0
 25 47  1  0  0  0  0
 26 27  1  0  0  0  0
 26 48  1  0  0  0  0
 27 28  1  0  0  0  0
 27 29  2  0  0  0  0
 29 30  1  0  0  0  0
 29 49  1  0  0  0  0
 30 50  1  0  0  0  0
M  END
$$$$
fmn005_6dn3
  MOE2018           3D

 48 51  0  0  0  0  0  0  0  0999 V2000
   27.0500   34.9230   22.0930 N   0  0  0  0  0  0  0  0  0  0  0  0
   26.5490   37.9870   25.8600 C   0  0  0  0  0  0  0  0  0  0  0  0
   28.3330   33.7430   17.0130 O   0  0  0  0  0  0  0  0  0  0  0  0
   26.8870   37.7700   24.4080 C   0  0  0  0  0  0  0  0  0  0  0  0
   28.1190   35.3280   18.6190 N   0  0  0  0  0  0  0  0  0  0  0  0
   28.3390   36.0100   17.8780 H   0  0  0  0  0  0  0  0  0  0  0  0
   27.2370   32.3200   21.1830 O   0  0  0  0  0  0  0  0  0  0  0  0
   26.7500   36.4980   23.8630 C   0  0  0  0  0  0  0  0  0  0  0  0
   27.8180   33.0690   19.1180 N   0  0  0  0  0  0  0  0  0  0  0  0
   27.8300   32.0900   18.7970 H   0  0  0  0  0  0  0  0  0  0  0  0
   27.1010   36.2360   22.5400 C   0  0  0  0  0  0  0  0  0  0  0  0
   27.9250   36.9850   20.3890 N   0  3  0  0  0  0  0  0  0  0  0  0
   27.4290   34.6700   20.8770 C   0  0  0  0  0  0  0  0  0  0  0  0
   27.8750   35.7060   19.9200 C   0  0  0  0  0  0  0  0  0  0  0  0
   28.1100   34.0260   18.1780 C   0  0  0  0  0  0  0  0  0  0  0  0
   27.4790   33.2800   20.4470 C   0  0  0  0  0  0  0  0  0  0  0  0
   27.5470   37.2880   21.7230 C   0  0  0  0  0  0  0  0  0  0  0  0
   27.6570   38.5700   22.2610 C   0  0  0  0  0  0  0  0  0  0  0  0
   27.3560   38.8210   23.5950 C   0  0  0  0  0  0  0  0  0  0  0  0
   27.6040   40.2010   24.1520 C   0  0  0  0  0  0  0  0  0  0  0  0
   28.3820   38.0430   19.4880 C   0  0  0  0  0  0  0  0  0  0  0  0
   27.2330   38.8600   18.9320 C   0  0  0  0  0  0  0  0  0  0  0  0
   27.6730   40.2120   18.4110 C   0  0  0  0  0  0  0  0  0  0  0  0
   28.0410   41.1320   19.5490 C   0  0  0  0  0  0  0  0  0  0  0  0
   27.0560   41.7360   20.3130 C   0  0  0  0  0  0  0  0  0  0  0  0
   27.3900   42.5360   21.3900 C   0  0  0  0  0  0  0  0  0  0  0  0
   28.7110   42.7540   21.7080 C   0  0  0  0  0  0  0  0  0  0  0  0
   29.6980   42.1570   20.9600 C   0  0  0  0  0  0  0  0  0  0  0  0
   29.3660   41.3520   19.8860 C   0  0  0  0  0  0  0  0  0  0  0  0
   26.2080   37.0490   26.2980 H   0  0  0  0  0  0  0  0  0  0  0  0
   25.7600   38.7340   25.9420 H   0  0  0  0  0  0  0  0  0  0  0  0
   27.4350   38.3350   26.3910 H   0  0  0  0  0  0  0  0  0  0  0  0
   26.3640   35.6980   24.4770 H   0  0  0  0  0  0  0  0  0  0  0  0
   27.9820   39.3830   21.6290 H   0  0  0  0  0  0  0  0  0  0  0  0
   27.3160   40.2260   25.2030 H   0  0  0  0  0  0  0  0  0  0  0  0
   27.0130   40.9290   23.5960 H   0  0  0  0  0  0  0  0  0  0  0  0
   28.6620   40.4460   24.0590 H   0  0  0  0  0  0  0  0  0  0  0  0
   28.9220   37.5880   18.6580 H   0  0  0  0  0  0  0  0  0  0  0  0
   29.0510   38.7060   20.0370 H   0  0  0  0  0  0  0  0  0  0  0  0
   26.5000   39.0140   19.7240 H   0  0  0  0  0  0  0  0  0  0  0  0
   26.7740   38.3040   18.1140 H   0  0  0  0  0  0  0  0  0  0  0  0
   26.8580   40.6580   17.8410 H   0  0  0  0  0  0  0  0  0  0  0  0
   28.5400   40.0800   17.7630 H   0  0  0  0  0  0  0  0  0  0  0  0
   26.0160   41.5800   20.0650 H   0  0  0  0  0  0  0  0  0  0  0  0
   26.6110   42.9910   21.9840 H   0  0  0  0  0  0  0  0  0  0  0  0
   28.9710   43.3910   22.5410 H   0  0  0  0  0  0  0  0  0  0  0  0
   30.7360   42.3170   21.2120 H   0  0  0  0  0  0  0  0  0  0  0  0
   30.1490   40.8900   19.3030 H   0  0  0  0  0  0  0  0  0  0  0  0
  1 11  2  0  0  0  0
  1 13  1  0  0  0  0
  2  4  1  0  0  0  0
  2 30  1  0  0  0  0
  2 31  1  0  0  0  0
  2 32  1  0  0  0  0
  3 15  2  0  0  0  0
  4  8  2  0  0  0  0
  4 19  1  0  0  0  0
  5  6  1  0  0  0  0
  5 14  1  0  0  0  0
  5 15  1  0  0  0  0
  7 16  2  0  0  0  0
  8 11  1  0  0  0  0
  8 33  1  0  0  0  0
  9 10  1  0  0  0  0
  9 15  1  0  0  0  0
  9 16  1  0  0  0  0
 11 17  1  0  0  0  0
 12 14  1  0  0  0  0
 12 17  2  0  0  0  0
 12 21  1  0  0  0  0
 13 14  2  0  0  0  0
 13 16  1  0  0  0  0
 17 18  1  0  0  0  0
 18 19  2  0  0  0  0
 18 34  1  0  0  0  0
 19 20  1  0  0  0  0
 20 35  1  0  0  0  0
 20 36  1  0  0  0  0
 20 37  1  0  0  0  0
 21 22  1  0  0  0  0
 21 38  1  0  0  0  0
 21 39  1  0  0  0  0
 22 23  1  0  0  0  0
 22 40  1  0  0  0  0
 22 41  1  0  0  0  0
 23 24  1  0  0  0  0
 23 42  1  0  0  0  0
 23 43  1  0  0  0  0
 24 25  1  0  0  0  0
 24 29  2  0  0  0  0
 25 26  2  0  0  0  0
 25 44  1  0  0  0  0
 26 27  1  0  0  0  0
 26 45  1  0  0  0  0
 27 28  2  0  0  0  0
 27 46  1  0  0  0  0
 28 29  1  0  0  0  0
 28 47  1  0  0  0  0
 29 48  1  0  0  0  0
M  CHG  1  12   1
M  END
$$$$
fmn006_6dn1
  MOE2018           3D

 62 65  0  0  0  0  0  0  0  0999 V2000
   27.3330   38.0480   18.5070 C   0  0  0  0  0  0  0  0  0  0  0  0
   27.8450   39.9730   23.8540 N   0  0  0  0  0  0  0  0  0  0  0  0
   28.3410   34.7170   18.8740 N   0  0  0  0  0  0  0  0  0  0  0  0
   28.5890   35.2970   18.0580 H   0  0  0  0  0  0  0  0  0  0  0  0
   27.3100   44.8390   16.5500 O   0  0  0  0  0  0  0  0  0  0  0  0
   26.6490   45.5310   16.5940 H   0  0  0  0  0  0  0  0  0  0  0  0
   28.4790   37.5310   19.3550 C   0  0  0  0  0  0  0  0  0  0  0  0
   28.3510   33.3990   18.6870 C   0  0  0  0  0  0  0  0  0  0  0  0
   25.4290   43.7650   16.9200 O   0  0  0  0  0  0  0  0  0  0  0  0
   28.7340   33.0740   17.4510 O   0  0  0  0  0  0  0  0  0  0  0  0
   26.7940   39.4340   18.8870 C   0  0  0  0  0  0  0  0  0  0  0  0
   28.0630   32.4460   19.5700 N   0  0  0  0  0  0  0  0  0  0  0  0
   27.5760   40.6040   18.3100 C   0  0  0  0  0  0  0  0  0  0  0  0
   27.7150   32.9040   20.8090 C   0  0  0  0  0  0  0  0  0  0  0  0
   27.6620   34.2700   21.1440 C   0  0  0  0  0  0  0  0  0  0  0  0
   27.4420   32.0560   21.7740 O   0  0  0  0  0  0  0  0  0  0  0  0
   26.8050   41.3060   17.2300 C   0  0  0  0  0  0  0  0  0  0  0  0
   27.3580   36.0100   22.6510 C   0  0  0  0  0  0  0  0  0  0  0  0
   27.3160   34.6610   22.4110 N   0  0  0  0  0  0  0  0  0  0  0  0
   27.4960   42.5380   16.6740 C   0  0  0  0  0  0  0  0  0  0  0  0
   26.9730   36.4210   23.9380 C   0  0  0  0  0  0  0  0  0  0  0  0
   26.6750   43.8040   16.7230 C   0  0  0  0  0  0  0  0  0  0  0  0
   27.0600   37.7550   24.3320 C   0  0  0  0  0  0  0  0  0  0  0  0
   26.5970   38.1650   25.7030 C   0  0  0  0  0  0  0  0  0  0  0  0
   28.3230   41.0250   22.9760 C   0  0  0  0  0  0  0  0  0  0  0  0
   27.5650   38.6910   23.4120 C   0  0  0  0  0  0  0  0  0  0  0  0
   27.1790   41.5620   22.1660 C   0  0  0  0  0  0  0  0  0  0  0  0
   27.8750   38.3110   22.1040 C   0  0  0  0  0  0  0  0  0  0  0  0
   27.7670   36.9850   21.7040 C   0  0  0  0  0  0  0  0  0  0  0  0
   28.0190   35.1570   20.0990 C   0  0  0  0  0  0  0  0  0  0  0  0
   28.0790   36.5600   20.3900 N   0  3  0  0  0  0  0  0  0  0  0  0
   26.8870   42.9320   22.7240 C   0  0  0  0  0  0  0  0  0  0  0  0
   27.5910   42.9990   23.9850 C   0  0  0  0  0  0  0  0  0  0  0  0
   28.8290   42.2170   23.6930 C   0  0  0  0  0  0  0  0  0  0  0  0
   26.5110   37.3360   18.5860 H   0  0  0  0  0  0  0  0  0  0  0  0
   27.6760   38.0940   17.4730 H   0  0  0  0  0  0  0  0  0  0  0  0
   27.7100   40.1860   24.8320 H   0  0  0  0  0  0  0  0  0  0  0  0
   28.9490   38.3820   19.8490 H   0  0  0  0  0  0  0  0  0  0  0  0
   29.2010   37.0490   18.6960 H   0  0  0  0  0  0  0  0  0  0  0  0
   26.8110   39.5180   19.9740 H   0  0  0  0  0  0  0  0  0  0  0  0
   25.7660   39.5060   18.5330 H   0  0  0  0  0  0  0  0  0  0  0  0
   28.1100   31.4430   19.3390 H   0  0  0  0  0  0  0  0  0  0  0  0
   28.5120   40.2320   17.8920 H   0  0  0  0  0  0  0  0  0  0  0  0
   27.7920   41.3140   19.1090 H   0  0  0  0  0  0  0  0  0  0  0  0
   25.8420   41.6100   17.6400 H   0  0  0  0  0  0  0  0  0  0  0  0
   26.6470   40.6040   16.4110 H   0  0  0  0  0  0  0  0  0  0  0  0
   27.7530   42.3410   15.6330 H   0  0  0  0  0  0  0  0  0  0  0  0
   28.4080   42.7030   17.2480 H   0  0  0  0  0  0  0  0  0  0  0  0
   26.6010   35.6870   24.6380 H   0  0  0  0  0  0  0  0  0  0  0  0
   26.2470   37.2870   26.2460 H   0  0  0  0  0  0  0  0  0  0  0  0
   25.7830   38.8840   25.6120 H   0  0  0  0  0  0  0  0  0  0  0  0
   27.4260   38.6210   26.2450 H   0  0  0  0  0  0  0  0  0  0  0  0
   29.1180   40.5600   22.3930 H   0  0  0  0  0  0  0  0  0  0  0  0
   26.3060   40.9170   22.2680 H   0  0  0  0  0  0  0  0  0  0  0  0
   27.4580   41.6320   21.1150 H   0  0  0  0  0  0  0  0  0  0  0  0
   28.2030   39.0570   21.3950 H   0  0  0  0  0  0  0  0  0  0  0  0
   25.8160   43.0590   22.8800 H   0  0  0  0  0  0  0  0  0  0  0  0
   27.2490   43.7040   22.0450 H   0  0  0  0  0  0  0  0  0  0  0  0
   27.0120   42.5390   24.7860 H   0  0  0  0  0  0  0  0  0  0  0  0
   27.8270   44.0290   24.2520 H   0  0  0  0  0  0  0  0  0  0  0  0
   29.5120   42.7890   23.0650 H   0  0  0  0  0  0  0  0  0  0  0  0
   29.3360   41.9310   24.6150 H   0  0  0  0  0  0  0  0  0  0  0  0
  1  7  1  0  0  0  0
  1 11  1  0  0  0  0
  1 35  1  0  0  0  0
  1 36  1  0  0  0  0
  2 25  1  0  0  0  0
  2 26  1  0  0  0  0
  2 37  1  0  0  0  0
  3  4  1  0  0  0  0
  3  8  1  0  0  0  0
  3 30  1  0  0  0  0
  5  6  1  0  0  0  0
  5 22  1  0  0  0  0
  7 31  1  0  0  0  0
  7 38  1  0  0  0  0
  7 39  1  0  0  0  0
  8 10  2  0  0  0  0
  8 12  1  0  0  0  0
  9 22  2  0  0  0  0
 11 13  1  0  0  0  0
 11 40  1  0  0  0  0
 11 41  1  0  0  0  0
 12 14  1  0  0  0  0
 12 42  1  0  0  0  0
 13 17  1  0  0  0  0
 13 43  1  0  0  0  0
 13 44  1  0  0  0  0
 14 15  1  0  0  0  0
 14 16  2  0  0  0  0
 15 19  2  0  0  0  0
 15 30  1  0  0  0  0
 17 20  1  0  0  0  0
 17 45  1  0  0  0  0
 17 46  1  0  0  0  0
 18 19  1  0  0  0  0
 18 21  1  0  0  0  0
 18 29  2  0  0  0  0
 20 22  1  0  0  0  0
 20 47  1  0  0  0  0
 20 48  1  0  0  0  0
 21 23  2  0  0  0  0
 21 49  1  0  0  0  0
 23 24  1  0  0  0  0
 23 26  1  0  0  0  0
 24 50  1  0  0  0  0
 24 51  1  0  0  0  0
 24 52  1  0  0  0  0
 25 27  1  0  0  0  0
 25 34  1  0  0  0  0
 25 53  1  0  0  0  0
 26 28  2  0  0  0  0
 27 32  1  0  0  0  0
 27 54  1  0  0  0  0
 27 55  1  0  0  0  0
 28 29  1  0  0  0  0
 28 56  1  0  0  0  0
 29 31  1  0  0  0  0
 30 31  2  0  0  0  0
 32 33  1  0  0  0  0
 32 57  1  0  0  0  0
 32 58  1  0  0  0  0
 33 34  1  0  0  0  0
 33 59  1  0  0  0  0
 33 60  1  0  0  0  0
 34 61  1  0  0  0  0
 34 62  1  0  0  0  0
M  CHG  1  31   1
M  END
$$$$
fmn007_6dn2
  MOE2018           3D

 61 64  0  0  0  0  0  0  0  0999 V2000
   27.0590   38.5550   17.6690 N   0  0  0  0  0  0  0  0  0  0  0  0
   27.6540   43.0380   16.5400 C   0  0  0  0  0  0  0  0  0  0  0  0
   28.3570   42.9450   15.5490 O   0  0  0  0  0  0  0  0  0  0  0  0
   28.0430   43.6380   14.9660 H   0  0  0  0  0  0  0  0  0  0  0  0
   27.8110   42.1500   17.7420 C   0  0  0  0  0  0  0  0  0  0  0  0
   28.3850   36.6640   20.1130 N   0  0  0  0  0  0  0  0  0  0  0  0
   26.7020   43.9410   16.6750 O   0  0  0  0  0  0  0  0  0  0  0  0
   26.7200   41.0910   17.9240 C   0  0  0  0  0  0  0  0  0  0  0  0
   27.4000   34.6460   21.8800 N   0  0  0  0  0  0  0  0  0  0  0  0
   29.4460   33.4320   16.9550 O   0  0  0  0  0  0  0  0  0  0  0  0
   26.8680   39.8630   17.0080 C   0  0  0  0  0  0  0  0  0  0  0  0
   28.4340   32.6950   18.8660 N   0  0  0  0  0  0  0  0  0  0  0  0
   28.4780   31.7370   18.5100 H   0  0  0  0  0  0  0  0  0  0  0  0
   27.3960   32.0780   20.8170 O   0  0  0  0  0  0  0  0  0  0  0  0
   27.8110   38.7350   18.9120 C   0  0  0  0  0  0  0  0  0  0  0  0
   28.8310   35.0250   18.4900 N   0  0  0  0  0  0  0  0  0  0  0  0
   28.8690   37.6990   19.1900 C   0  0  0  0  0  0  0  0  0  0  0  0
   27.9530   37.0090   21.4160 C   0  0  0  0  0  0  0  0  0  0  0  0
   27.4700   35.9680   22.2490 C   0  0  0  0  0  0  0  0  0  0  0  0
   27.8450   34.3630   20.6090 C   0  0  0  0  0  0  0  0  0  0  0  0
   27.9070   33.0410   20.0970 C   0  0  0  0  0  0  0  0  0  0  0  0
   28.8630   33.7370   18.1530 C   0  0  0  0  0  0  0  0  0  0  0  0
   28.3410   35.3260   19.7000 C   0  0  0  0  0  0  0  0  0  0  0  0
   27.0730   36.2750   23.5670 C   0  0  0  0  0  0  0  0  0  0  0  0
   27.1740   37.5730   24.0640 C   0  0  0  0  0  0  0  0  0  0  0  0
   26.9060   37.8260   25.5250 C   0  0  0  0  0  0  0  0  0  0  0  0
   27.6330   38.6100   23.2160 C   0  0  0  0  0  0  0  0  0  0  0  0
   27.7050   40.0380   23.6940 C   0  0  0  0  0  0  0  0  0  0  0  0
   28.0200   38.3120   21.9110 C   0  0  0  0  0  0  0  0  0  0  0  0
   25.7660   37.8890   17.9160 C   0  0  0  0  0  0  0  0  0  0  0  0
   25.7440   36.4150   17.5830 C   0  0  0  0  0  0  0  0  0  0  0  0
   25.3620   35.4810   18.5390 C   0  0  0  0  0  0  0  0  0  0  0  0
   25.3100   34.1280   18.2300 C   0  0  0  0  0  0  0  0  0  0  0  0
   25.6310   33.6930   16.9590 C   0  0  0  0  0  0  0  0  0  0  0  0
   26.0040   34.6120   15.9970 C   0  0  0  0  0  0  0  0  0  0  0  0
   26.0640   35.9640   16.3070 C   0  0  0  0  0  0  0  0  0  0  0  0
   27.8160   42.7830   18.6290 H   0  0  0  0  0  0  0  0  0  0  0  0
   28.7680   41.6350   17.6570 H   0  0  0  0  0  0  0  0  0  0  0  0
   25.7560   41.5560   17.7180 H   0  0  0  0  0  0  0  0  0  0  0  0
   26.7450   40.7500   18.9590 H   0  0  0  0  0  0  0  0  0  0  0  0
   25.9660   39.7960   16.3990 H   0  0  0  0  0  0  0  0  0  0  0  0
   27.7300   40.0350   16.3630 H   0  0  0  0  0  0  0  0  0  0  0  0
   27.1010   38.7190   19.7390 H   0  0  0  0  0  0  0  0  0  0  0  0
   28.2980   39.7090   18.8710 H   0  0  0  0  0  0  0  0  0  0  0  0
   29.1580   37.2280   18.2510 H   0  0  0  0  0  0  0  0  0  0  0  0
   29.7360   38.1890   19.6320 H   0  0  0  0  0  0  0  0  0  0  0  0
   26.6850   35.4920   24.2010 H   0  0  0  0  0  0  0  0  0  0  0  0
   26.5630   36.9050   25.9960 H   0  0  0  0  0  0  0  0  0  0  0  0
   26.1390   38.5940   25.6260 H   0  0  0  0  0  0  0  0  0  0  0  0
   27.8230   38.1620   26.0100 H   0  0  0  0  0  0  0  0  0  0  0  0
   27.3680   40.0920   24.7290 H   0  0  0  0  0  0  0  0  0  0  0  0
   27.0650   40.6620   23.0710 H   0  0  0  0  0  0  0  0  0  0  0  0
   28.7340   40.3920   23.6270 H   0  0  0  0  0  0  0  0  0  0  0  0
   28.3790   39.1040   21.2710 H   0  0  0  0  0  0  0  0  0  0  0  0
   25.0070   38.3850   17.3120 H   0  0  0  0  0  0  0  0  0  0  0  0
   25.5210   38.0030   18.9720 H   0  0  0  0  0  0  0  0  0  0  0  0
   25.1030   35.8110   19.5340 H   0  0  0  0  0  0  0  0  0  0  0  0
   25.0180   33.4140   18.9860 H   0  0  0  0  0  0  0  0  0  0  0  0
   25.5910   32.6410   16.7190 H   0  0  0  0  0  0  0  0  0  0  0  0
   26.2500   34.2770   15.0000 H   0  0  0  0  0  0  0  0  0  0  0  0
   26.3620   36.6730   15.5490 H   0  0  0  0  0  0  0  0  0  0  0  0
  1 11  1  0  0  0  0
  1 15  1  0  0  0  0
  1 30  1  0  0  0  0
  2  3  1  0  0  0  0
  2  5  1  0  0  0  0
  2  7  2  0  0  0  0
  3  4  1  0  0  0  0
  5  8  1  0  0  0  0
  5 37  1  0  0  0  0
  5 38  1  0  0  0  0
  6 17  1  0  0  0  0
  6 18  1  0  0  0  0
  6 23  1  0  0  0  0
  8 11  1  0  0  0  0
  8 39  1  0  0  0  0
  8 40  1  0  0  0  0
  9 19  1  0  0  0  0
  9 20  2  0  0  0  0
 10 22  2  0  0  0  0
 11 41  1  0  0  0  0
 11 42  1  0  0  0  0
 12 13  1  0  0  0  0
 12 21  1  0  0  0  0
 12 22  1  0  0  0  0
 14 21  2  0  0  0  0
 15 17  1  0  0  0  0
 15 43  1  0  0  0  0
 15 44  1  0  0  0  0
 16 22  1  0  0  0  0
 16 23  2  0  0  0  0
 17 45  1  0  0  0  0
 17 46  1  0  0  0  0
 18 19  1  0  0  0  0
 18 29  2  0  0  0  0
 19 24  2  0  0  0  0
 20 21  1  0  0  0  0
 20 23  1  0  0  0  0
 24 25  1  0  0  0  0
 24 47  1  0  0  0  0
 25 26  1  0  0  0  0
 25 27  2  0  0  0  0
 26 48  1  0  0  0  0
 26 49  1  0  0  0  0
 26 50  1  0  0  0  0
 27 28  1  0  0  0  0
 27 29  1  0  0  0  0
 28 51  1  0  0  0  0
 28 52  1  0  0  0  0
 28 53  1  0  0  0  0
 29 54  1  0  0  0  0
 30 31  1  0  0  0  0
 30 55  1  0  0  0  0
 30 56  1  0  0  0  0
 31 32  1  0  0  0  0
 31 36  2  0  0  0  0
 32 33  2  0  0  0  0
 32 57  1  0  0  0  0
 33 34  1  0  0  0  0
 33 58  1  0  0  0  0
 34 35  2  0  0  0  0
 34 59  1  0  0  0  0
 35 36  1  0  0  0  0
 35 60  1  0  0  0  0
 36 61  1  0  0  0  0
M  END
$$$$
fmn008
  MOE2018           3D

 49 52  0  0  1  0  0  0  0  0999 V2000
   29.7990   42.8110   25.2950 C   0  0  0  0  0  0  0  0  0  0  0  0
   28.4950   42.7120   24.6490 N   0  0  0  0  0  0  0  0  0  0  0  0
   28.3660   42.4030   23.3390 C   0  0  0  0  0  0  0  0  0  0  0  0
   29.4470   42.3610   22.5680 N   0  0  0  0  0  0  0  0  0  0  0  0
   29.2770   42.0630   21.2970 C   0  0  0  0  0  0  0  0  0  0  0  0
   28.0150   41.7990   20.7880 C   0  0  0  0  0  0  0  0  0  0  0  0
   26.9450   41.8300   21.6700 C   0  0  0  0  0  0  0  0  0  0  0  0
   27.1280   42.1540   22.9400 N   0  0  0  0  0  0  0  0  0  0  0  0
   27.8220   41.5860   19.3020 C   0  0  0  0  0  0  0  0  0  0  0  0
   27.6200   40.1580   18.9550 N   0  0  0  0  0  0  0  0  0  0  0  0
   27.3370   40.1010   17.4880 C   0  0  0  0  0  0  0  0  0  0  0  0
   27.8750   38.8110   16.8400 C   0  0  0  0  0  0  0  0  0  0  0  0
   27.5680   37.6650   17.7920 C   0  0  0  0  0  0  0  0  0  0  0  0
   28.5380   37.8120   18.9860 C   0  0  3  0  0  0  0  0  0  0  0  0
   28.7670   39.3120   19.3810 C   0  0  0  0  0  0  0  0  0  0  0  0
   28.0040   36.9710   20.1410 C   0  0  0  0  0  0  0  0  0  0  0  0
   27.8110   37.3950   21.3330 N   0  0  0  0  0  0  0  0  0  0  0  0
   28.0170   38.3620   21.5400 H   0  0  0  0  0  0  0  0  0  0  0  0
   27.3310   36.5840   22.3550 C   0  0  0  0  0  0  0  0  0  0  0  0
   27.0640   35.2780   22.0750 C   0  0  0  0  0  0  0  0  0  0  0  0
   27.2750   34.7900   20.7640 C   0  0  0  0  0  0  0  0  0  0  0  0
   27.0630   33.6520   20.3600 O   0  0  0  0  0  0  0  0  0  0  0  0
   27.7530   35.6640   19.8500 N   0  0  0  0  0  0  0  0  0  0  0  0
   27.1360   37.1740   23.6650 C   0  0  0  0  0  0  0  0  0  0  0  0
   26.6130   36.5940   24.7950 C   0  0  0  0  0  0  0  0  0  0  0  0
   26.5570   37.4610   25.8860 C   0  0  0  0  0  0  0  0  0  0  0  0
   27.0360   38.7040   25.6000 C   0  0  0  0  0  0  0  0  0  0  0  0
   27.5680   38.8220   23.9740 S   0  0  0  0  0  0  0  0  0  0  0  0
   30.2540   41.8180   25.3120 H   0  0  0  0  0  0  0  0  0  0  0  0
   30.4230   43.5030   24.7260 H   0  0  0  0  0  0  0  0  0  0  0  0
   29.6570   43.1850   26.3100 H   0  0  0  0  0  0  0  0  0  0  0  0
   27.6720   42.4240   25.1880 H   0  0  0  0  0  0  0  0  0  0  0  0
   30.1300   42.0420   20.6680 H   0  0  0  0  0  0  0  0  0  0  0  0
   25.9620   41.6160   21.3350 H   0  0  0  0  0  0  0  0  0  0  0  0
   26.9370   42.1400   19.0130 H   0  0  0  0  0  0  0  0  0  0  0  0
   28.6990   41.9590   18.7890 H   0  0  0  0  0  0  0  0  0  0  0  0
   27.8040   40.9300   16.9690 H   0  0  0  0  0  0  0  0  0  0  0  0
   26.2620   40.1170   17.3620 H   0  0  0  0  0  0  0  0  0  0  0  0
   28.9480   38.8870   16.6520 H   0  0  0  0  0  0  0  0  0  0  0  0
   27.3630   38.6550   15.8900 H   0  0  0  0  0  0  0  0  0  0  0  0
   27.7270   36.7120   17.2840 H   0  0  0  0  0  0  0  0  0  0  0  0
   26.5290   37.7300   18.1270 H   0  0  0  0  0  0  0  0  0  0  0  0
   29.4990   37.4040   18.7080 H   0  0  0  0  0  0  0  0  0  0  0  0
   29.6510   39.6520   18.8580 H   0  0  0  0  0  0  0  0  0  0  0  0
   28.9120   39.3860   20.4510 H   0  0  0  0  0  0  0  0  0  0  0  0
   26.6980   34.6090   22.8040 H   0  0  0  0  0  0  0  0  0  0  0  0
   26.2800   35.5900   24.8380 H   0  0  0  0  0  0  0  0  0  0  0  0
   26.1810   37.1870   26.8390 H   0  0  0  0  0  0  0  0  0  0  0  0
   27.0990   39.5370   26.2500 H   0  0  0  0  0  0  0  0  0  0  0  0
  1  2  1  0  0  0  0
  1 29  1  0  0  0  0
  1 30  1  0  0  0  0
  1 31  1  0  0  0  0
  2  3  1  0  0  0  0
  2 32  1  0  0  0  0
  3  4  1  0  0  0  0
  3  8  2  0  0  0  0
  4  5  2  0  0  0  0
  5  6  1  0  0  0  0
  5 33  1  0  0  0  0
  6  7  2  0  0  0  0
  6  9  1  0  0  0  0
  7  8  1  0  0  0  0
  7 34  1  0  0  0  0
  9 10  1  0  0  0  0
  9 35  1  0  0  0  0
  9 36  1  0  0  0  0
 10 11  1  0  0  0  0
 10 15  1  0  0  0  0
 11 12  1  0  0  0  0
 11 37  1  0  0  0  0
 11 38  1  0  0  0  0
 12 13  1  0  0  0  0
 12 39  1  0  0  0  0
 12 40  1  0  0  0  0
 13 14  1  0  0  0  0
 13 41  1  0  0  0  0
 13 42  1  0  0  0  0
 14 15  1  0  0  0  0
 14 16  1  0  0  0  0
 14 43  1  0  0  0  0
 15 44  1  0  0  0  0
 15 45  1  0  0  0  0
 16 17  1  0  0  0  0
 16 23  2  0  0  0  0
 17 18  1  0  0  0  0
 17 19  1  0  0  0  0
 19 20  2  0  0  0  0
 19 24  1  0  0  0  0
 20 21  1  0  0  0  0
 20 46  1  0  0  0  0
 21 22  2  0  0  0  0
 21 23  1  0  0  0  0
 24 25  2  0  0  0  0
 24 28  1  0  0  0  0
 25 26  1  0  0  0  0
 25 47  1  0  0  0  0
 26 27  2  0  0  0  0
 26 48  1  0  0  0  0
 27 28  1  0  0  0  0
 27 49  1  0  0  0  0
M  END
$$$$
fmn009_5c45
  MOE2018           3D

 49 52  0  0  1  0  0  0  0  0999 V2000
   27.7670   35.5690   19.7550 N   0  0  0  0  0  0  0  0  0  0  0  0
   27.9320   35.2840   18.8000 H   0  0  0  0  0  0  0  0  0  0  0  0
   28.0150   36.7970   20.1350 C   0  0  0  0  0  0  0  0  0  0  0  0
   27.7800   37.2860   21.3830 N   0  0  0  0  0  0  0  0  0  0  0  0
   27.3130   36.4340   22.3440 C   0  0  0  0  0  0  0  0  0  0  0  0
   27.0640   35.1250   22.0490 C   0  0  0  0  0  0  0  0  0  0  0  0
   27.2710   34.6620   20.6900 C   0  0  0  0  0  0  0  0  0  0  0  0
   27.0230   33.5030   20.3370 O   0  0  0  0  0  0  0  0  0  0  0  0
   28.4570   37.8450   19.1260 C   0  0  3  0  0  0  0  0  0  0  0  0
   27.8850   39.1550   19.6910 C   0  0  0  0  0  0  0  0  0  0  0  0
   28.0910   40.2620   18.7610 N   0  0  0  0  0  0  0  0  0  0  0  0
   27.3640   39.9890   17.5000 C   0  0  0  0  0  0  0  0  0  0  0  0
   27.8910   38.7220   16.8340 C   0  0  0  0  0  0  0  0  0  0  0  0
   27.7970   37.5330   17.7780 C   0  0  0  0  0  0  0  0  0  0  0  0
   27.1410   37.1150   23.6210 C   0  0  0  0  0  0  0  0  0  0  0  0
   27.5490   38.7750   23.8430 S   0  0  0  0  0  0  0  0  0  0  0  0
   27.0780   38.7500   25.4540 C   0  0  0  0  0  0  0  0  0  0  0  0
   26.6010   37.5500   25.7970 C   0  0  0  0  0  0  0  0  0  0  0  0
   26.6330   36.6070   24.7510 C   0  0  0  0  0  0  0  0  0  0  0  0
   27.7110   41.5670   19.3330 C   0  0  0  0  0  0  0  0  0  0  0  0
   27.9620   41.7830   20.8120 C   0  0  0  0  0  0  0  0  0  0  0  0
   26.9260   41.9340   21.7190 C   0  0  0  0  0  0  0  0  0  0  0  0
   27.0940   42.2370   23.0170 N   0  0  0  0  0  0  0  0  0  0  0  0
   28.3660   42.4300   23.4010 C   0  0  0  0  0  0  0  0  0  0  0  0
   29.4530   42.3720   22.6110 N   0  0  0  0  0  0  0  0  0  0  0  0
   29.2160   42.0770   21.3220 C   0  0  0  0  0  0  0  0  0  0  0  0
   28.5550   42.7640   24.6860 N   0  0  0  0  0  0  0  0  0  0  0  0
   29.8410   43.0280   25.2990 C   0  0  0  0  0  0  0  0  0  0  0  0
   26.7190   34.4460   22.8140 H   0  0  0  0  0  0  0  0  0  0  0  0
   29.5360   37.8850   18.9760 H   0  0  0  0  0  0  0  0  0  0  0  0
   28.3830   39.3840   20.6330 H   0  0  0  0  0  0  0  0  0  0  0  0
   26.8160   39.0310   19.8660 H   0  0  0  0  0  0  0  0  0  0  0  0
   27.4970   40.8310   16.8210 H   0  0  0  0  0  0  0  0  0  0  0  0
   26.3040   39.8630   17.7190 H   0  0  0  0  0  0  0  0  0  0  0  0
   28.9330   38.8730   16.5540 H   0  0  0  0  0  0  0  0  0  0  0  0
   27.3010   38.5160   15.9410 H   0  0  0  0  0  0  0  0  0  0  0  0
   26.7470   37.2920   17.9430 H   0  0  0  0  0  0  0  0  0  0  0  0
   28.2990   36.6780   17.3250 H   0  0  0  0  0  0  0  0  0  0  0  0
   27.1510   39.5930   26.1250 H   0  0  0  0  0  0  0  0  0  0  0  0
   26.2260   37.3240   26.7840 H   0  0  0  0  0  0  0  0  0  0  0  0
   26.2870   35.5890   24.8490 H   0  0  0  0  0  0  0  0  0  0  0  0
   26.6430   41.7010   19.1600 H   0  0  0  0  0  0  0  0  0  0  0  0
   28.2650   42.3340   18.7920 H   0  0  0  0  0  0  0  0  0  0  0  0
   25.9170   41.7990   21.3590 H   0  0  0  0  0  0  0  0  0  0  0  0
   30.0550   42.0690   20.6420 H   0  0  0  0  0  0  0  0  0  0  0  0
   27.7360   42.8370   25.2730 H   0  0  0  0  0  0  0  0  0  0  0  0
   30.6290   42.9130   24.5550 H   0  0  0  0  0  0  0  0  0  0  0  0
   30.0060   42.3240   26.1150 H   0  0  0  0  0  0  0  0  0  0  0  0
   29.8550   44.0460   25.6890 H   0  0  0  0  0  0  0  0  0  0  0  0
  1  2  1  0  0  0  0
  1  3  1  0  0  0  0
  1  7  1  0  0  0  0
  3  4  2  0  0  0  0
  3  9  1  0  0  0  0
  4  5  1  0  0  0  0
  5  6  2  0  0  0  0
  5 15  1  0  0  0  0
  6  7  1  0  0  0  0
  6 29  1  0  0  0  0
  7  8  2  0  0  0  0
  9 10  1  0  0  0  0
  9 14  1  0  0  0  0
  9 30  1  0  0  0  0
 10 11  1  0  0  0  0
 10 31  1  0  0  0  0
 10 32  1  0  0  0  0
 11 12  1  0  0  0  0
 11 20  1  0  0  0  0
 12 13  1  0  0  0  0
 12 33  1  0  0  0  0
 12 34  1  0  0  0  0
 13 14  1  0  0  0  0
 13 35  1  0  0  0  0
 13 36  1  0  0  0  0
 14 37  1  0  0  0  0
 14 38  1  0  0  0  0
 15 16  1  0  0  0  0
 15 19  2  0  0  0  0
 16 17  1  0  0  0  0
 17 18  2  0  0  0  0
 17 39  1  0  0  0  0
 18 19  1  0  0  0  0
 18 40  1  0  0  0  0
 19 41  1  0  0  0  0
 20 21  1  0  0  0  0
 20 42  1  0  0  0  0
 20 43  1  0  0  0  0
 21 22  1  0  0  0  0
 21 26  2  0  0  0  0
 22 23  2  0  0  0  0
 22 44  1  0  0  0  0
 23 24  1  0  0  0  0
 24 25  2  0  0  0  0
 24 27  1  0  0  0  0
 25 26  1  0  0  0  0
 26 45  1  0  0  0  0
 27 28  1  0  0  0  0
 27 46  1  0  0  0  0
 28 47  1  0  0  0  0
 28 48  1  0  0  0  0
 28 49  1  0  0  0  0
M  END
$$$$
fmn010
  MOE2018           3D

 51 55  0  0  1  0  0  0  0  0999 V2000
   27.0140   33.5780   20.3590 O   0  0  0  0  0  0  0  0  0  0  0  0
   27.2440   34.7270   20.7200 C   0  0  0  0  0  0  0  0  0  0  0  0
   27.7240   35.6210   19.7820 N   0  0  0  0  0  0  0  0  0  0  0  0
   27.8590   35.3230   18.8270 H   0  0  0  0  0  0  0  0  0  0  0  0
   27.9980   36.8220   20.1170 C   0  0  0  0  0  0  0  0  0  0  0  0
   27.8050   37.2450   21.3980 N   0  0  0  0  0  0  0  0  0  0  0  0
   27.3060   36.4470   22.3940 C   0  0  0  0  0  0  0  0  0  0  0  0
   27.0290   35.1570   22.0500 C   0  0  0  0  0  0  0  0  0  0  0  0
   27.1250   37.0930   23.6760 C   0  0  0  0  0  0  0  0  0  0  0  0
   26.6180   36.5540   24.8300 C   0  0  0  0  0  0  0  0  0  0  0  0
   26.5660   37.4630   25.8870 C   0  0  0  0  0  0  0  0  0  0  0  0
   27.0330   38.6980   25.5490 C   0  0  0  0  0  0  0  0  0  0  0  0
   27.5460   38.7590   23.9130 S   0  0  0  0  0  0  0  0  0  0  0  0
   28.5180   37.8980   19.1870 C   0  0  3  0  0  0  0  0  0  0  0  0
   28.8460   37.3840   17.7520 C   0  0  0  0  0  0  0  0  0  0  0  0
   27.7030   37.7660   16.7940 C   0  0  0  0  0  0  0  0  0  0  0  0
   27.5500   39.3050   16.7370 C   0  0  0  0  0  0  0  0  0  0  0  0
   27.8410   39.8770   18.0690 N   0  3  3  0  0  0  0  0  0  0  0  0
   27.1750   41.1610   18.2320 C   0  0  0  0  0  0  0  0  0  0  0  0
   27.9180   41.6550   19.4440 C   0  0  0  0  0  0  0  0  0  0  0  0
   27.3770   41.9390   20.6420 C   0  0  0  0  0  0  0  0  0  0  0  0
   28.4150   42.1670   21.4740 N   0  0  0  0  0  0  0  0  0  0  0  0
   29.5490   42.0350   20.7380 C   0  0  0  0  0  0  0  0  0  0  0  0
   29.2820   41.7080   19.5110 N   0  0  0  0  0  0  0  0  0  0  0  0
   28.3470   42.3920   22.8670 C   0  0  0  0  0  0  0  0  0  0  0  0
   27.1380   42.3580   23.4230 N   0  0  0  0  0  0  0  0  0  0  0  0
   27.0520   42.5640   24.7260 C   0  0  0  0  0  0  0  0  0  0  0  0
   28.1950   42.7960   25.4730 C   0  0  0  0  0  0  0  0  0  0  0  0
   29.4200   42.8050   24.8290 C   0  0  0  0  0  0  0  0  0  0  0  0
   29.4860   42.5970   23.5250 N   0  0  0  0  0  0  0  0  0  0  0  0
   27.4070   38.9540   19.1320 C   0  0  0  0  0  0  0  0  0  0  0  0
   26.6500   34.4620   22.7480 H   0  0  0  0  0  0  0  0  0  0  0  0
   26.2940   35.5480   24.9140 H   0  0  0  0  0  0  0  0  0  0  0  0
   26.2030   37.2220   26.8540 H   0  0  0  0  0  0  0  0  0  0  0  0
   27.0990   39.5520   26.1720 H   0  0  0  0  0  0  0  0  0  0  0  0
   29.4120   38.3250   19.6230 H   0  0  0  0  0  0  0  0  0  0  0  0
   29.0140   36.3050   17.7290 H   0  0  0  0  0  0  0  0  0  0  0  0
   29.7690   37.8550   17.4060 H   0  0  0  0  0  0  0  0  0  0  0  0
   26.7720   37.2930   17.1140 H   0  0  0  0  0  0  0  0  0  0  0  0
   27.9280   37.3960   15.7910 H   0  0  0  0  0  0  0  0  0  0  0  0
   26.5310   39.5230   16.4370 H   0  0  0  0  0  0  0  0  0  0  0  0
   28.2700   39.6910   16.0230 H   0  0  0  0  0  0  0  0  0  0  0  0
   26.1200   41.0480   18.4530 H   0  0  0  0  0  0  0  0  0  0  0  0
   27.3920   41.8220   17.4010 H   0  0  0  0  0  0  0  0  0  0  0  0
   26.3710   41.9660   20.9780 H   0  0  0  0  0  0  0  0  0  0  0  0
   30.5000   42.1840   21.1880 H   0  0  0  0  0  0  0  0  0  0  0  0
   26.0940   42.5480   25.1860 H   0  0  0  0  0  0  0  0  0  0  0  0
   28.1330   42.9640   26.5160 H   0  0  0  0  0  0  0  0  0  0  0  0
   30.3190   42.9770   25.3690 H   0  0  0  0  0  0  0  0  0  0  0  0
   27.3630   39.4460   20.0960 H   0  0  0  0  0  0  0  0  0  0  0  0
   26.4670   38.4790   18.8730 H   0  0  0  0  0  0  0  0  0  0  0  0
  1  2  2  0  0  0  0
  2  3  1  0  0  0  0
  2  8  1  0  0  0  0
  3  4  1  0  0  0  0
  3  5  1  0  0  0  0
  5  6  2  0  0  0  0
  5 14  1  0  0  0  0
  6  7  1  0  0  0  0
  7  8  2  0  0  0  0
  7  9  1  0  0  0  0
  8 32  1  0  0  0  0
  9 10  2  0  0  0  0
  9 13  1  0  0  0  0
 10 11  1  0  0  0  0
 10 33  1  0  0  0  0
 11 12  2  0  0  0  0
 11 34  1  0  0  0  0
 12 13  1  0  0  0  0
 12 35  1  0  0  0  0
 14 15  1  0  0  0  0
 14 31  1  0  0  0  0
 14 36  1  0  0  0  0
 15 16  1  0  0  0  0
 15 37  1  0  0  0  0
 15 38  1  0  0  0  0
 16 17  1  0  0  0  0
 16 39  1  0  0  0  0
 16 40  1  0  0  0  0
 17 18  1  0  0  0  0
 17 41  1  0  0  0  0
 17 42  1  0  0  0  0
 18 19  1  0  0  0  0
 18 31  1  0  0  0  0
 19 20  1  0  0  0  0
 19 43  1  0  0  0  0
 19 44  1  0  0  0  0
 20 21  2  0  0  0  0
 20 24  1  0  0  0  0
 21 22  1  0  0  0  0
 21 45  1  0  0  0  0
 22 23  1  0  0  0  0
 22 25  1  0  0  0  0
 23 24  2  0  0  0  0
 23 46  1  0  0  0  0
 25 26  1  0  0  0  0
 25 30  2  0  0  0  0
 26 27  2  0  0  0  0
 27 28  1  0  0  0  0
 27 47  1  0  0  0  0
 28 29  2  0  0  0  0
 28 48  1  0  0  0  0
 29 30  1  0  0  0  0
 29 49  1  0  0  0  0
 31 50  1  0  0  0  0
 31 51  1  0  0  0  0
M  CHG  1  18   1
M  END
$$$$
fmn011_5kx9
  MOE2018           3D

 48 51  0  0  1  0  0  0  0  0999 V2000
   27.7370   35.5150   19.6320 N   0  0  0  0  0  0  0  0  0  0  0  0
   27.9280   35.2360   18.6800 H   0  0  0  0  0  0  0  0  0  0  0  0
   28.0170   36.7280   20.0400 C   0  0  0  0  0  0  0  0  0  0  0  0
   27.7650   37.2050   21.2850 N   0  0  0  0  0  0  0  0  0  0  0  0
   27.2230   36.3600   22.2120 C   0  0  0  0  0  0  0  0  0  0  0  0
   26.9250   35.0690   21.8820 C   0  0  0  0  0  0  0  0  0  0  0  0
   27.1710   34.6150   20.5340 C   0  0  0  0  0  0  0  0  0  0  0  0
   26.8790   33.4770   20.1460 O   0  0  0  0  0  0  0  0  0  0  0  0
   28.5090   37.8360   19.0830 C   0  0  3  0  0  0  0  0  0  0  0  0
   27.9550   39.1050   19.7510 C   0  0  0  0  0  0  0  0  0  0  0  0
   28.0890   40.2770   18.8840 N   0  3  3  0  0  0  0  0  0  0  0  0
   27.2950   40.0650   17.6630 C   0  0  0  0  0  0  0  0  0  0  0  0
   27.8250   38.8840   16.8740 C   0  0  0  0  0  0  0  0  0  0  0  0
   27.8280   37.6190   17.7210 C   0  0  0  0  0  0  0  0  0  0  0  0
   27.0490   36.9960   23.5110 C   0  0  0  0  0  0  0  0  0  0  0  0
   27.4580   38.6520   23.7670 S   0  0  0  0  0  0  0  0  0  0  0  0
   27.0220   38.5740   25.3840 C   0  0  0  0  0  0  0  0  0  0  0  0
   26.5410   37.3690   25.7150 C   0  0  0  0  0  0  0  0  0  0  0  0
   26.5560   36.4450   24.6520 C   0  0  0  0  0  0  0  0  0  0  0  0
   27.6660   41.5150   19.5620 C   0  0  0  0  0  0  0  0  0  0  0  0
   27.9410   41.5750   21.0480 C   0  0  0  0  0  0  0  0  0  0  0  0
   26.9140   41.7750   21.9590 C   0  0  0  0  0  0  0  0  0  0  0  0
   27.0940   42.1900   23.2260 N   0  0  0  0  0  0  0  0  0  0  0  0
   28.3560   42.4390   23.5420 C   0  0  0  0  0  0  0  0  0  0  0  0
   29.4310   42.3360   22.7770 N   0  0  0  0  0  0  0  0  0  0  0  0
   29.1880   41.9240   21.5240 C   0  0  0  0  0  0  0  0  0  0  0  0
   28.5300   42.8600   24.8000 O   0  0  0  0  0  0  0  0  0  0  0  0
   29.8670   43.1590   25.2180 C   0  0  0  0  0  0  0  0  0  0  0  0
   26.5110   34.3970   22.6190 H   0  0  0  0  0  0  0  0  0  0  0  0
   29.5860   37.8680   18.9210 H   0  0  0  0  0  0  0  0  0  0  0  0
   28.5030   39.2850   20.6760 H   0  0  0  0  0  0  0  0  0  0  0  0
   26.9000   38.9530   19.9780 H   0  0  0  0  0  0  0  0  0  0  0  0
   27.3460   40.9600   17.0440 H   0  0  0  0  0  0  0  0  0  0  0  0
   26.2580   39.8730   17.9400 H   0  0  0  0  0  0  0  0  0  0  0  0
   28.8440   39.0990   16.5510 H   0  0  0  0  0  0  0  0  0  0  0  0
   27.1930   38.7260   16.0000 H   0  0  0  0  0  0  0  0  0  0  0  0
   26.7970   37.3060   17.8890 H   0  0  0  0  0  0  0  0  0  0  0  0
   28.3620   36.8360   17.1820 H   0  0  0  0  0  0  0  0  0  0  0  0
   27.1180   39.3980   26.0760 H   0  0  0  0  0  0  0  0  0  0  0  0
   26.1760   37.1290   26.7030 H   0  0  0  0  0  0  0  0  0  0  0  0
   26.2170   35.4230   24.7330 H   0  0  0  0  0  0  0  0  0  0  0  0
   26.5920   41.6270   19.4150 H   0  0  0  0  0  0  0  0  0  0  0  0
   28.1860   42.3490   19.0910 H   0  0  0  0  0  0  0  0  0  0  0  0
   25.9030   41.5850   21.6290 H   0  0  0  0  0  0  0  0  0  0  0  0
   30.0240   41.8610   20.8430 H   0  0  0  0  0  0  0  0  0  0  0  0
   29.8580   43.4880   26.2570 H   0  0  0  0  0  0  0  0  0  0  0  0
   30.2760   43.9510   24.5900 H   0  0  0  0  0  0  0  0  0  0  0  0
   30.4850   42.2660   25.1250 H   0  0  0  0  0  0  0  0  0  0  0  0
  1  2  1  0  0  0  0
  1  3  1  0  0  0  0
  1  7  1  0  0  0  0
  3  4  2  0  0  0  0
  3  9  1  0  0  0  0
  4  5  1  0  0  0  0
  5  6  2  0  0  0  0
  5 15  1  0  0  0  0
  6  7  1  0  0  0  0
  6 29  1  0  0  0  0
  7  8  2  0  0  0  0
  9 10  1  0  0  0  0
  9 14  1  0  0  0  0
  9 30  1  0  0  0  0
 10 11  1  0  0  0  0
 10 31  1  0  0  0  0
 10 32  1  0  0  0  0
 11 12  1  0  0  0  0
 11 20  1  0  0  0  0
 12 13  1  0  0  0  0
 12 33  1  0  0  0  0
 12 34  1  0  0  0  0
 13 14  1  0  0  0  0
 13 35  1  0  0  0  0
 13 36  1  0  0  0  0
 14 37  1  0  0  0  0
 14 38  1  0  0  0  0
 15 16  1  0  0  0  0
 15 19  2  0  0  0  0
 16 17  1  0  0  0  0
 17 18  2  0  0  0  0
 17 39  1  0  0  0  0
 18 19  1  0  0  0  0
 18 40  1  0  0  0  0
 19 41  1  0  0  0  0
 20 21  1  0  0  0  0
 20 42  1  0  0  0  0
 20 43  1  0  0  0  0
 21 22  1  0  0  0  0
 21 26  2  0  0  0  0
 22 23  2  0  0  0  0
 22 44  1  0  0  0  0
 23 24  1  0  0  0  0
 24 25  2  0  0  0  0
 24 27  1  0  0  0  0
 25 26  1  0  0  0  0
 26 45  1  0  0  0  0
 27 28  1  0  0  0  0
 28 46  1  0  0  0  0
 28 47  1  0  0  0  0
 28 48  1  0  0  0  0
M  CHG  1  11   1
M  END
$$$$
fmn012
  MOE2018           3D

 37 40  0  0  0  0  0  0  0  0999 V2000
   27.3840   33.6880   23.2200 C   0  0  0  0  0  0  0  0  0  0  0  0
   27.7240   34.7130   22.2100 C   0  0  0  0  0  0  0  0  0  0  0  0
   27.7390   36.0540   22.5250 C   0  0  0  0  0  0  0  0  0  0  0  0
   27.4330   36.4400   23.8210 C   0  0  0  0  0  0  0  0  0  0  0  0
   27.4540   37.7770   24.1310 C   0  0  0  0  0  0  0  0  0  0  0  0
   27.7590   38.7190   23.2300 N   0  0  0  0  0  0  0  0  0  0  0  0
   28.0610   38.3730   21.9600 C   0  0  0  0  0  0  0  0  0  0  0  0
   28.0550   37.0480   21.5930 C   0  0  0  0  0  0  0  0  0  0  0  0
   28.3630   36.6220   20.2970 C   0  0  0  0  0  0  0  0  0  0  0  0
   28.3540   35.2880   19.9700 C   0  0  0  0  0  0  0  0  0  0  0  0
   28.0370   34.3560   20.9210 C   0  0  0  0  0  0  0  0  0  0  0  0
   28.0960   33.1050   20.3740 N   0  0  0  0  0  0  0  0  0  0  0  0
   28.4400   33.2110   19.1030 C   0  0  0  0  0  0  0  0  0  0  0  0
   28.6120   34.5830   18.8180 C   0  0  0  0  0  0  0  0  0  0  0  0
   28.9800   34.9500   17.5470 C   0  0  0  0  0  0  0  0  0  0  0  0
   29.1680   33.9730   16.6000 C   0  0  0  0  0  0  0  0  0  0  0  0
   29.0040   32.6320   16.8640 C   0  0  0  0  0  0  0  0  0  0  0  0
   28.6370   32.2540   18.1290 C   0  0  0  0  0  0  0  0  0  0  0  0
   29.5380   34.3340   15.3180 O   0  0  0  0  0  0  0  0  0  0  0  0
   29.7560   33.4270   14.2770 C   0  0  0  0  0  0  0  0  0  0  0  0
   28.6750   37.6330   19.2830 C   0  0  0  0  0  0  0  0  0  0  0  0
   27.1970   32.7370   22.6870 H   0  0  0  0  0  0  0  0  0  0  0  0
   26.4650   33.9740   23.7820 H   0  0  0  0  0  0  0  0  0  0  0  0
   28.2460   33.5400   23.9000 H   0  0  0  0  0  0  0  0  0  0  0  0
   27.1780   35.7000   24.5920 H   0  0  0  0  0  0  0  0  0  0  0  0
   27.2030   38.0300   25.1730 H   0  0  0  0  0  0  0  0  0  0  0  0
   28.3140   39.1250   21.2330 H   0  0  0  0  0  0  0  0  0  0  0  0
   27.9040   32.1990   20.8590 H   0  0  0  0  0  0  0  0  0  0  0  0
   29.1280   35.9430   17.2760 H   0  0  0  0  0  0  0  0  0  0  0  0
   29.1520   31.8640   16.1170 H   0  0  0  0  0  0  0  0  0  0  0  0
   28.4940   31.1920   18.3870 H   0  0  0  0  0  0  0  0  0  0  0  0
   29.7040   33.9770   13.2990 H   0  0  0  0  0  0  0  0  0  0  0  0
   30.7840   32.9850   14.3250 H   0  0  0  0  0  0  0  0  0  0  0  0
   29.0140   32.6100   14.2240 H   0  0  0  0  0  0  0  0  0  0  0  0
   27.9180   37.4440   18.4480 H   0  0  0  0  0  0  0  0  0  0  0  0
   29.7240   37.4860   18.9040 H   0  0  0  0  0  0  0  0  0  0  0  0
   28.4810   38.6640   19.5270 H   0  0  0  0  0  0  0  0  0  0  0  0
  1  2  1  0  0  0  0
  1 22  1  0  0  0  0
  1 23  1  0  0  0  0
  1 24  1  0  0  0  0
  2  3  1  0  0  0  0
  2 11  2  0  0  0  0
  3  4  1  0  0  0  0
  3  8  2  0  0  0  0
  4  5  2  0  0  0  0
  4 25  1  0  0  0  0
  5  6  1  0  0  0  0
  5 26  1  0  0  0  0
  6  7  2  0  0  0  0
  7  8  1  0  0  0  0
  7 27  1  0  0  0  0
  8  9  1  0  0  0  0
  9 10  2  0  0  0  0
  9 21  1  0  0  0  0
 10 11  1  0  0  0  0
 10 14  1  0  0  0  0
 11 12  1  0  0  0  0
 12 13  1  0  0  0  0
 12 28  1  0  0  0  0
 13 14  1  0  0  0  0
 13 18  2  0  0  0  0
 14 15  2  0  0  0  0
 15 16  1  0  0  0  0
 15 29  1  0  0  0  0
 16 17  2  0  0  0  0
 16 19  1  0  0  0  0
 17 18  1  0  0  0  0
 17 30  1  0  0  0  0
 18 31  1  0  0  0  0
 19 20  1  0  0  0  0
 20 32  1  0  0  0  0
 20 33  1  0  0  0  0
 20 34  1  0  0  0  0
 21 35  1  0  0  0  0
 21 36  1  0  0  0  0
 21 37  1  0  0  0  0
M  END
$$$$
fmn013_6bfb
  MOE2018           3D

 51 55  0  0  1  0  0  0  0  0999 V2000
   25.5400   36.2180   17.7340 N   0  0  0  0  0  0  0  0  0  0  0  0
   26.2110   36.2110   16.4250 C   0  0  0  0  0  0  0  0  0  0  0  0
   28.2580   37.4730   18.2610 O   0  0  0  0  0  0  0  0  0  0  0  0
   24.0900   35.9810   17.6220 C   0  0  0  0  0  0  0  0  0  0  0  0
   26.0040   38.4110   20.5900 N   0  0  0  0  0  0  0  0  0  0  0  0
   23.1850   41.1820   25.7770 O   0  0  0  0  0  0  0  0  0  0  0  0
   25.9280   37.3630   18.5800 C   0  0  3  0  0  0  0  0  0  0  0  0
   27.6580   40.5880   21.7440 N   0  0  0  0  0  0  0  0  0  0  0  0
   25.6130   43.9430   27.5340 O   0  0  0  0  0  0  0  0  0  0  0  0
   25.0550   44.3890   28.2070 H   0  0  0  0  0  0  0  0  0  0  0  0
   25.0600   37.6300   19.7980 C   0  0  0  0  0  0  0  0  0  0  0  0
   26.8500   41.7960   24.1020 N   0  0  0  0  0  0  0  0  0  0  0  0
   23.4770   43.4040   27.0980 O   0  0  0  0  0  0  0  0  0  0  0  0
   27.3620   37.8670   20.4970 C   0  0  0  0  0  0  0  0  0  0  0  0
   27.2810   37.0520   19.2150 C   0  0  3  0  0  0  0  0  0  0  0  0
   25.5790   39.1370   21.7810 C   0  0  0  0  0  0  0  0  0  0  0  0
   24.3420   38.9260   22.4240 C   0  0  0  0  0  0  0  0  0  0  0  0
   23.9280   39.6280   23.5290 C   0  0  0  0  0  0  0  0  0  0  0  0
   24.7490   40.6120   24.0780 C   0  0  0  0  0  0  0  0  0  0  0  0
   24.2740   41.4130   25.2400 C   0  0  0  0  0  0  0  0  0  0  0  0
   25.2070   42.4580   25.7350 C   0  0  0  0  0  0  0  0  0  0  0  0
   26.4830   42.6150   25.1670 C   0  0  0  0  0  0  0  0  0  0  0  0
   28.8330   42.8380   24.4240 C   0  0  0  0  0  0  0  0  0  0  0  0
   28.1900   41.9110   23.7070 C   0  0  0  0  0  0  0  0  0  0  0  0
   28.7870   41.0490   22.5960 C   0  0  0  0  0  0  0  0  0  0  0  0
   29.4890   41.6370   22.0160 H   0  0  0  0  0  0  0  0  0  0  0  0
   29.2570   40.1850   23.0480 H   0  0  0  0  0  0  0  0  0  0  0  0
   27.5710   41.1600   20.3720 C   0  0  0  0  0  0  0  0  0  0  0  0
   26.4250   40.1300   22.3520 C   0  0  0  0  0  0  0  0  0  0  0  0
   26.0090   40.8370   23.5020 C   0  0  0  0  0  0  0  0  0  0  0  0
   24.7810   43.3330   26.8590 C   0  0  0  0  0  0  0  0  0  0  0  0
   23.5210   37.9660   21.9550 F   0  0  0  0  0  0  0  0  0  0  0  0
   27.8370   43.5680   25.6140 S   0  0  0  0  0  0  0  0  0  0  0  0
   25.8650   37.0600   15.8350 H   0  0  0  0  0  0  0  0  0  0  0  0
   25.9760   35.2840   15.9010 H   0  0  0  0  0  0  0  0  0  0  0  0
   27.2890   36.2840   16.5690 H   0  0  0  0  0  0  0  0  0  0  0  0
   28.1560   36.9240   17.4800 H   0  0  0  0  0  0  0  0  0  0  0  0
   23.6290   36.8030   17.0750 H   0  0  0  0  0  0  0  0  0  0  0  0
   23.6540   35.9180   18.6190 H   0  0  0  0  0  0  0  0  0  0  0  0
   23.9150   35.0470   17.0890 H   0  0  0  0  0  0  0  0  0  0  0  0
   25.8730   38.2120   17.8990 H   0  0  0  0  0  0  0  0  0  0  0  0
   24.1680   38.2030   19.5450 H   0  0  0  0  0  0  0  0  0  0  0  0
   24.7690   36.7080   20.3020 H   0  0  0  0  0  0  0  0  0  0  0  0
   27.5970   37.2360   21.3540 H   0  0  0  0  0  0  0  0  0  0  0  0
   28.1040   38.6620   20.4160 H   0  0  0  0  0  0  0  0  0  0  0  0
   27.4330   36.0010   19.4600 H   0  0  0  0  0  0  0  0  0  0  0  0
   22.9660   39.4180   23.9730 H   0  0  0  0  0  0  0  0  0  0  0  0
   29.8700   43.0990   24.2700 H   0  0  0  0  0  0  0  0  0  0  0  0
   28.4660   40.8720   19.8340 H   0  0  0  0  0  0  0  0  0  0  0  0
   27.4960   42.2360   20.4500 H   0  0  0  0  0  0  0  0  0  0  0  0
   26.6990   40.7570   19.8740 H   0  0  0  0  0  0  0  0  0  0  0  0
  1  2  1  0  0  0  0
  1  4  1  0  0  0  0
  1  7  1  0  0  0  0
  2 34  1  0  0  0  0
  2 35  1  0  0  0  0
  2 36  1  0  0  0  0
  3 15  1  0  0  0  0
  3 37  1  0  0  0  0
  4 38  1  0  0  0  0
  4 39  1  0  0  0  0
  4 40  1  0  0  0  0
  5 11  1  0  0  0  0
  5 14  1  0  0  0  0
  5 16  1  0  0  0  0
  6 20  2  0  0  0  0
  7 11  1  0  0  0  0
  7 15  1  0  0  0  0
  7 41  1  0  0  0  0
  8 25  1  0  0  0  0
  8 28  1  0  0  0  0
  8 29  1  0  0  0  0
  9 10  1  0  0  0  0
  9 31  1  0  0  0  0
 11 42  1  0  0  0  0
 11 43  1  0  0  0  0
 12 22  1  0  0  0  0
 12 24  1  0  0  0  0
 12 30  1  0  0  0  0
 13 31  2  0  0  0  0
 14 15  1  0  0  0  0
 14 44  1  0  0  0  0
 14 45  1  0  0  0  0
 15 46  1  0  0  0  0
 16 17  1  0  0  0  0
 16 29  2  0  0  0  0
 17 18  2  0  0  0  0
 17 32  1  0  0  0  0
 18 19  1  0  0  0  0
 18 47  1  0  0  0  0
 19 20  1  0  0  0  0
 19 30  2  0  0  0  0
 20 21  1  0  0  0  0
 21 22  2  0  0  0  0
 21 31  1  0  0  0  0
 22 33  1  0  0  0  0
 23 24  2  0  0  0  0
 23 33  1  0  0  0  0
 23 48  1  0  0  0  0
 24 25  1  0  0  0  0
 25 26  1  0  0  0  0
 25 27  1  0  0  0  0
 28 49  1  0  0  0  0
 28 50  1  0  0  0  0
 28 51  1  0  0  0  0
 29 30  1  0  0  0  0
M  END
$$$$
