thf001_3sux
  MOE2018           3D

 57 59  0  0  1  0  0  0  0  0999 V2000
    5.4010  -18.2880   24.9080 O   0  0  0  0  0  0  0  0  0  0  0  0
    2.4110  -19.1680   27.4390 O   0  0  0  0  0  0  0  0  0  0  0  0
   11.7130  -23.2450   23.2940 O   0  0  0  0  0  0  0  0  0  0  0  0
   15.3140  -22.3600   25.9350 O   0  0  0  0  0  0  0  0  0  0  0  0
   15.4000  -22.8120   23.8640 O   0  0  0  0  0  0  0  0  0  0  0  0
   16.9970  -20.1700   24.1690 O   0  0  0  0  0  0  0  0  0  0  0  0
   16.2730  -19.0880   25.9700 O   0  0  0  0  0  0  0  0  0  0  0  0
    3.8440  -19.7690   24.9910 N   0  0  0  0  0  0  0  0  0  0  0  0
    5.7380  -22.8940   25.0970 N   0  0  0  0  0  0  0  0  0  0  0  0
    2.4370  -21.5950   23.3320 N   0  0  0  0  0  0  0  0  0  0  0  0
    0.6080  -20.2020   26.7120 N   0  0  0  0  0  0  0  0  0  0  0  0
    0.5080  -21.3320   24.6360 N   0  0  0  0  0  0  0  0  0  0  0  0
   -0.0010  -21.9000   23.9520 H   0  0  0  0  0  0  0  0  0  0  0  0
   12.2200  -22.1660   25.1360 N   0  0  0  0  0  0  0  0  0  0  0  0
   -1.2780  -21.2460   26.1080 N   0  0  0  0  0  0  0  0  0  0  0  0
    4.5880  -20.8450   24.3190 C   0  0  1  0  0  0  0  0  0  0  0  0
    4.8860  -21.8000   25.5050 C   0  0  0  0  0  0  0  0  0  0  0  0
    2.4930  -20.1480   25.2730 C   0  0  0  0  0  0  0  0  0  0  0  0
    3.7020  -21.5340   23.2690 C   0  0  0  0  0  0  0  0  0  0  0  0
    4.0510  -18.4060   24.5800 C   0  0  0  0  0  0  0  0  0  0  0  0
    1.7980  -20.9860   24.4300 C   0  0  0  0  0  0  0  0  0  0  0  0
    7.0940  -22.7190   24.9580 C   0  0  0  0  0  0  0  0  0  0  0  0
    1.8760  -19.7740   26.5100 C   0  0  0  0  0  0  0  0  0  0  0  0
   13.4130  -21.5880   24.4890 C   0  0  1  0  0  0  0  0  0  0  0  0
   13.5420  -20.1380   24.9920 C   0  0  0  0  0  0  0  0  0  0  0  0
    7.9170  -22.2770   25.9980 C   0  0  0  0  0  0  0  0  0  0  0  0
    7.6330  -23.0920   23.7390 C   0  0  0  0  0  0  0  0  0  0  0  0
    9.8560  -22.6930   24.6050 C   0  0  0  0  0  0  0  0  0  0  0  0
   -0.0260  -20.9390   25.7770 C   0  0  0  0  0  0  0  0  0  0  0  0
   14.6660  -19.4330   24.2040 C   0  0  0  0  0  0  0  0  0  0  0  0
    9.2950  -22.2740   25.8230 C   0  0  0  0  0  0  0  0  0  0  0  0
    8.9970  -23.0750   23.5700 C   0  0  0  0  0  0  0  0  0  0  0  0
   11.2880  -22.7460   24.3260 C   0  0  0  0  0  0  0  0  0  0  0  0
   14.6830  -22.3950   24.7550 C   0  0  0  0  0  0  0  0  0  0  0  0
   16.0320  -19.5410   24.8710 C   0  0  0  0  0  0  0  0  0  0  0  0
    5.5130  -20.5080   23.8690 H   0  0  0  0  0  0  0  0  0  0  0  0
    5.3670  -21.2300   26.3010 H   0  0  0  0  0  0  0  0  0  0  0  0
    3.9540  -22.2070   25.9000 H   0  0  0  0  0  0  0  0  0  0  0  0
    4.2090  -21.9960   22.4610 H   0  0  0  0  0  0  0  0  0  0  0  0
    3.4620  -17.7270   25.1860 H   0  0  0  0  0  0  0  0  0  0  0  0
    3.9070  -18.2920   23.5110 H   0  0  0  0  0  0  0  0  0  0  0  0
    5.3130  -23.4920   24.3690 H   0  0  0  0  0  0  0  0  0  0  0  0
   13.2840  -21.5550   23.4140 H   0  0  0  0  0  0  0  0  0  0  0  0
   12.6020  -19.6210   24.7950 H   0  0  0  0  0  0  0  0  0  0  0  0
   13.7430  -20.1070   26.0660 H   0  0  0  0  0  0  0  0  0  0  0  0
    7.4870  -21.9850   26.9200 H   0  0  0  0  0  0  0  0  0  0  0  0
    7.0030  -23.4080   22.9500 H   0  0  0  0  0  0  0  0  0  0  0  0
   11.9250  -21.7760   26.0380 H   0  0  0  0  0  0  0  0  0  0  0  0
   14.4360  -18.3680   24.1680 H   0  0  0  0  0  0  0  0  0  0  0  0
   14.7110  -19.7850   23.1740 H   0  0  0  0  0  0  0  0  0  0  0  0
    9.9200  -21.9670   26.6200 H   0  0  0  0  0  0  0  0  0  0  0  0
    9.3990  -23.3740   22.6340 H   0  0  0  0  0  0  0  0  0  0  0  0
    5.4870  -18.6390   25.8090 H   0  0  0  0  0  0  0  0  0  0  0  0
   -1.7130  -21.9370   25.4820 H   0  0  0  0  0  0  0  0  0  0  0  0
   -1.5410  -21.2660   27.0980 H   0  0  0  0  0  0  0  0  0  0  0  0
   16.1560  -22.7900   25.7750 H   0  0  0  0  0  0  0  0  0  0  0  0
   16.6560  -20.6210   23.3980 H   0  0  0  0  0  0  0  0  0  0  0  0
  1 20  1  0  0  0  0
  1 53  1  0  0  0  0
  2 23  2  0  0  0  0
  3 33  2  0  0  0  0
  4 34  1  0  0  0  0
  4 56  1  0  0  0  0
  5 34  2  0  0  0  0
  6 35  1  0  0  0  0
  6 57  1  0  0  0  0
  7 35  2  0  0  0  0
  8 16  1  0  0  0  0
  8 18  1  0  0  0  0
  8 20  1  0  0  0  0
  9 17  1  0  0  0  0
  9 22  1  0  0  0  0
  9 42  1  0  0  0  0
 10 19  2  0  0  0  0
 10 21  1  0  0  0  0
 11 23  1  0  0  0  0
 11 29  2  0  0  0  0
 12 13  1  0  0  0  0
 12 21  1  0  0  0  0
 12 29  1  0  0  0  0
 14 24  1  0  0  0  0
 14 33  1  0  0  0  0
 14 48  1  0  0  0  0
 15 29  1  0  0  0  0
 15 54  1  0  0  0  0
 15 55  1  0  0  0  0
 16 17  1  0  0  0  0
 16 19  1  0  0  0  0
 16 36  1  0  0  0  0
 17 37  1  0  0  0  0
 17 38  1  0  0  0  0
 18 21  2  0  0  0  0
 18 23  1  0  0  0  0
 19 39  1  0  0  0  0
 20 40  1  0  0  0  0
 20 41  1  0  0  0  0
 22 26  2  0  0  0  0
 22 27  1  0  0  0  0
 24 25  1  0  0  0  0
 24 34  1  0  0  0  0
 24 43  1  0  0  0  0
 25 30  1  0  0  0  0
 25 44  1  0  0  0  0
 25 45  1  0  0  0  0
 26 31  1  0  0  0  0
 26 46  1  0  0  0  0
 27 32  2  0  0  0  0
 27 47  1  0  0  0  0
 28 31  2  0  0  0  0
 28 32  1  0  0  0  0
 28 33  1  0  0  0  0
 30 35  1  0  0  0  0
 30 49  1  0  0  0  0
 30 50  1  0  0  0  0
 31 51  1  0  0  0  0
 32 52  1  0  0  0  0
M  END
$$$$
thf002_4lvv
  MOE2018           3D

 57 59  0  0  1  0  0  0  0  0999 V2000
    3.5460  -21.0580   22.6690 C   0  0  0  0  0  0  0  0  0  0  0  0
    4.5180  -20.8940   23.8720 C   0  0  3  0  0  0  0  0  0  0  0  0
    3.8820  -19.9580   24.8140 N   0  0  0  0  0  0  0  0  0  0  0  0
    2.5290  -20.2810   25.2090 C   0  0  0  0  0  0  0  0  0  0  0  0
    1.7440  -21.0160   24.3470 C   0  0  0  0  0  0  0  0  0  0  0  0
    2.2250  -21.5160   23.1600 N   0  0  0  0  0  0  0  0  0  0  0  0
    0.4580  -21.3460   24.6180 N   0  0  0  0  0  0  0  0  0  0  0  0
   -0.0120  -20.9760   25.7630 C   0  0  0  0  0  0  0  0  0  0  0  0
    0.6860  -20.2820   26.6930 N   0  0  0  0  0  0  0  0  0  0  0  0
    1.9750  -19.9080   26.4620 C   0  0  0  0  0  0  0  0  0  0  0  0
    2.5350  -19.3010   27.3840 O   0  0  0  0  0  0  0  0  0  0  0  0
   -1.2620  -21.2730   26.1130 N   0  0  0  0  0  0  0  0  0  0  0  0
    4.4830  -18.7780   25.1610 C   0  0  0  0  0  0  0  0  0  0  0  0
    5.5330  -18.4330   24.6530 O   0  0  0  0  0  0  0  0  0  0  0  0
    4.6750  -22.2760   24.5630 C   0  0  0  0  0  0  0  0  0  0  0  0
    5.7530  -22.1900   25.5650 N   0  0  0  0  0  0  0  0  0  0  0  0
    7.0990  -22.3630   25.2750 C   0  0  0  0  0  0  0  0  0  0  0  0
    8.0240  -22.1530   26.2970 C   0  0  0  0  0  0  0  0  0  0  0  0
    9.3770  -22.3090   26.0490 C   0  0  0  0  0  0  0  0  0  0  0  0
    9.8320  -22.6640   24.7720 C   0  0  0  0  0  0  0  0  0  0  0  0
    8.8870  -22.8910   23.7670 C   0  0  0  0  0  0  0  0  0  0  0  0
    7.5370  -22.7440   24.0070 C   0  0  0  0  0  0  0  0  0  0  0  0
   11.2460  -22.7700   24.4270 C   0  0  0  0  0  0  0  0  0  0  0  0
   11.6280  -23.2610   23.3740 O   0  0  0  0  0  0  0  0  0  0  0  0
   12.2160  -22.2460   25.2370 N   0  0  0  0  0  0  0  0  0  0  0  0
   13.4110  -21.6820   24.5580 C   0  0  3  0  0  0  0  0  0  0  0  0
   13.5200  -20.2040   24.9890 C   0  0  0  0  0  0  0  0  0  0  0  0
   14.6410  -19.5120   24.1660 C   0  0  0  0  0  0  0  0  0  0  0  0
   16.0110  -19.5610   24.8400 C   0  0  0  0  0  0  0  0  0  0  0  0
   16.2470  -19.1170   25.9500 O   0  0  0  0  0  0  0  0  0  0  0  0
   17.0130  -20.1500   24.1550 O   0  0  0  0  0  0  0  0  0  0  0  0
   14.7010  -22.4190   24.8590 C   0  0  0  0  0  0  0  0  0  0  0  0
   15.3450  -22.3230   25.9030 O   0  0  0  0  0  0  0  0  0  0  0  0
   15.3680  -22.8920   23.7770 O   0  0  0  0  0  0  0  0  0  0  0  0
    3.4410  -20.0940   22.1670 H   0  0  0  0  0  0  0  0  0  0  0  0
    3.9580  -21.7820   21.9630 H   0  0  0  0  0  0  0  0  0  0  0  0
    5.4820  -20.5480   23.5230 H   0  0  0  0  0  0  0  0  0  0  0  0
    1.4850  -21.7720   22.4870 H   0  0  0  0  0  0  0  0  0  0  0  0
    0.2770  -20.0520   27.6000 H   0  0  0  0  0  0  0  0  0  0  0  0
   -1.8410  -21.6980   25.3760 H   0  0  0  0  0  0  0  0  0  0  0  0
   -1.7190  -20.7970   26.8960 H   0  0  0  0  0  0  0  0  0  0  0  0
    3.9670  -18.1560   25.8480 H   0  0  0  0  0  0  0  0  0  0  0  0
    3.7510  -22.5730   25.0610 H   0  0  0  0  0  0  0  0  0  0  0  0
    4.8860  -23.0470   23.8240 H   0  0  0  0  0  0  0  0  0  0  0  0
    5.5490  -21.5800   26.3740 H   0  0  0  0  0  0  0  0  0  0  0  0
    7.6820  -21.8810   27.2620 H   0  0  0  0  0  0  0  0  0  0  0  0
   10.0680  -22.1540   26.8360 H   0  0  0  0  0  0  0  0  0  0  0  0
    9.2140  -23.1760   22.7990 H   0  0  0  0  0  0  0  0  0  0  0  0
    6.8540  -22.9210   23.2220 H   0  0  0  0  0  0  0  0  0  0  0  0
   11.9450  -21.8400   26.1400 H   0  0  0  0  0  0  0  0  0  0  0  0
   13.2860  -21.6980   23.4820 H   0  0  0  0  0  0  0  0  0  0  0  0
   12.5720  -19.7120   24.7650 H   0  0  0  0  0  0  0  0  0  0  0  0
   13.7180  -20.1200   26.0600 H   0  0  0  0  0  0  0  0  0  0  0  0
   14.7110  -19.9310   23.1610 H   0  0  0  0  0  0  0  0  0  0  0  0
   14.3910  -18.4570   24.0610 H   0  0  0  0  0  0  0  0  0  0  0  0
   17.7520  -20.1050   24.7650 H   0  0  0  0  0  0  0  0  0  0  0  0
   16.2150  -23.1760   24.1210 H   0  0  0  0  0  0  0  0  0  0  0  0
  1  2  1  0  0  0  0
  1  6  1  0  0  0  0
  1 35  1  0  0  0  0
  1 36  1  0  0  0  0
  2  3  1  0  0  0  0
  2 15  1  0  0  0  0
  2 37  1  0  0  0  0
  3  4  1  0  0  0  0
  3 13  1  0  0  0  0
  4  5  2  0  0  0  0
  4 10  1  0  0  0  0
  5  6  1  0  0  0  0
  5  7  1  0  0  0  0
  6 38  1  0  0  0  0
  7  8  2  0  0  0  0
  8  9  1  0  0  0  0
  8 12  1  0  0  0  0
  9 10  1  0  0  0  0
  9 39  1  0  0  0  0
 10 11  2  0  0  0  0
 12 40  1  0  0  0  0
 12 41  1  0  0  0  0
 13 14  2  0  0  0  0
 13 42  1  0  0  0  0
 15 16  1  0  0  0  0
 15 43  1  0  0  0  0
 15 44  1  0  0  0  0
 16 17  1  0  0  0  0
 16 45  1  0  0  0  0
 17 18  1  0  0  0  0
 17 22  2  0  0  0  0
 18 19  2  0  0  0  0
 18 46  1  0  0  0  0
 19 20  1  0  0  0  0
 19 47  1  0  0  0  0
 20 21  2  0  0  0  0
 20 23  1  0  0  0  0
 21 22  1  0  0  0  0
 21 48  1  0  0  0  0
 22 49  1  0  0  0  0
 23 24  2  0  0  0  0
 23 25  1  0  0  0  0
 25 26  1  0  0  0  0
 25 50  1  0  0  0  0
 26 27  1  0  0  0  0
 26 32  1  0  0  0  0
 26 51  1  0  0  0  0
 27 28  1  0  0  0  0
 27 52  1  0  0  0  0
 27 53  1  0  0  0  0
 28 29  1  0  0  0  0
 28 54  1  0  0  0  0
 28 55  1  0  0  0  0
 29 30  2  0  0  0  0
 29 31  1  0  0  0  0
 31 56  1  0  0  0  0
 32 33  2  0  0  0  0
 32 34  1  0  0  0  0
 34 57  1  0  0  0  0
M  END
$$$$
thf003_4lvw
  MOE2018           3D

 17 18  0  0  0  0  0  0  0  0999 V2000
    4.1290  -20.2100   24.4290 C   0  0  0  0  0  0  0  0  0  0  0  0
    3.8540  -20.9150   23.1040 C   0  0  0  0  0  0  0  0  0  0  0  0
    2.6970  -21.3950   22.9630 N   0  0  0  0  0  0  0  0  0  0  0  0
    1.9880  -21.1160   24.1310 C   0  0  0  0  0  0  0  0  0  0  0  0
    2.7610  -20.4390   25.0050 C   0  0  0  0  0  0  0  0  0  0  0  0
    2.2190  -20.0620   26.2560 C   0  0  0  0  0  0  0  0  0  0  0  0
    2.7850  -19.4460   27.1610 O   0  0  0  0  0  0  0  0  0  0  0  0
    0.9250  -20.4260   26.4770 N   0  0  0  0  0  0  0  0  0  0  0  0
    0.2240  -21.1080   25.5360 C   0  0  0  0  0  0  0  0  0  0  0  0
    0.6980  -21.4640   24.3840 N   0  0  0  0  0  0  0  0  0  0  0  0
   -1.0300  -21.4020   25.8780 N   0  0  0  0  0  0  0  0  0  0  0  0
    4.3120  -19.1570   24.2690 H   0  0  0  0  0  0  0  0  0  0  0  0
    4.8820  -20.7420   24.9940 H   0  0  0  0  0  0  0  0  0  0  0  0
    4.5960  -20.9930   22.3510 H   0  0  0  0  0  0  0  0  0  0  0  0
    0.5040  -20.1700   27.3710 H   0  0  0  0  0  0  0  0  0  0  0  0
   -1.4370  -21.1330   26.7780 H   0  0  0  0  0  0  0  0  0  0  0  0
   -1.5910  -21.9160   25.1860 H   0  0  0  0  0  0  0  0  0  0  0  0
  1  2  1  0  0  0  0
  1  5  1  0  0  0  0
  1 12  1  0  0  0  0
  1 13  1  0  0  0  0
  2  3  2  0  0  0  0
  2 14  1  0  0  0  0
  3  4  1  0  0  0  0
  4  5  2  0  0  0  0
  4 10  1  0  0  0  0
  5  6  1  0  0  0  0
  6  7  2  0  0  0  0
  6  8  1  0  0  0  0
  8  9  1  0  0  0  0
  8 15  1  0  0  0  0
  9 10  2  0  0  0  0
  9 11  1  0  0  0  0
 11 16  1  0  0  0  0
 11 17  1  0  0  0  0
M  END
$$$$
thf004_4lvx
  MOE2018           3D

 32 33  0  0  1  0  0  0  0  0999 V2000
    1.0330  -21.3160   24.5070 N   0  0  0  0  0  0  0  0  0  0  0  0
    0.4890  -21.0400   25.7600 C   0  0  0  0  0  0  0  0  0  0  0  0
   -0.8590  -21.4440   26.0310 N   0  0  0  0  0  0  0  0  0  0  0  0
   -1.2700  -22.0650   25.3230 H   0  0  0  0  0  0  0  0  0  0  0  0
   -1.1830  -21.5090   27.0010 H   0  0  0  0  0  0  0  0  0  0  0  0
    1.2140  -20.3750   26.7290 N   0  0  0  0  0  0  0  0  0  0  0  0
    0.7920  -20.1400   27.6300 H   0  0  0  0  0  0  0  0  0  0  0  0
    2.5120  -19.9790   26.4850 C   0  0  0  0  0  0  0  0  0  0  0  0
    3.1070  -20.2520   25.2210 C   0  0  0  0  0  0  0  0  0  0  0  0
    3.1450  -19.4030   27.3490 O   0  0  0  0  0  0  0  0  0  0  0  0
    4.4630  -19.8890   24.8550 N   0  0  0  0  0  0  0  0  0  0  0  0
    4.9600  -19.5510   25.6980 H   0  0  0  0  0  0  0  0  0  0  0  0
    5.1710  -20.9300   24.1990 C   0  0  2  0  0  0  0  0  0  0  0  0
    6.0960  -20.5020   23.8090 H   0  0  0  0  0  0  0  0  0  0  0  0
    4.3770  -21.4670   22.9590 C   0  0  0  0  0  0  0  0  0  0  0  0
    4.5530  -22.5410   22.8700 H   0  0  0  0  0  0  0  0  0  0  0  0
    4.8100  -21.0010   22.0730 H   0  0  0  0  0  0  0  0  0  0  0  0
    2.3460  -20.9220   24.2390 C   0  0  0  0  0  0  0  0  0  0  0  0
    2.9930  -21.2060   22.9390 N   0  0  0  0  0  0  0  0  0  0  0  0
    2.4320  -21.8290   22.3400 H   0  0  0  0  0  0  0  0  0  0  0  0
    5.5580  -21.9720   25.2700 C   0  0  1  0  0  0  0  0  0  0  0  0
    5.6290  -21.4360   26.2190 H   0  0  0  0  0  0  0  0  0  0  0  0
    4.5970  -22.9560   25.4630 O   0  0  0  0  0  0  0  0  0  0  0  0
    3.7350  -22.5600   25.3010 H   0  0  0  0  0  0  0  0  0  0  0  0
    6.9030  -22.6420   25.0880 C   0  0  1  0  0  0  0  0  0  0  0  0
    6.7820  -23.7140   25.2540 H   0  0  0  0  0  0  0  0  0  0  0  0
    7.4080  -22.4880   23.8580 O   0  0  0  0  0  0  0  0  0  0  0  0
    8.1840  -23.0490   23.7900 H   0  0  0  0  0  0  0  0  0  0  0  0
    7.9620  -22.1530   26.1030 C   0  0  0  0  0  0  0  0  0  0  0  0
    8.1210  -21.0800   25.9870 H   0  0  0  0  0  0  0  0  0  0  0  0
    8.9040  -22.6780   25.9410 H   0  0  0  0  0  0  0  0  0  0  0  0
    7.6180  -22.3580   27.1170 H   0  0  0  0  0  0  0  0  0  0  0  0
  1  2  2  0  0  0  0
  1 18  1  0  0  0  0
  2  3  1  0  0  0  0
  2  6  1  0  0  0  0
  3  4  1  0  0  0  0
  3  5  1  0  0  0  0
  6  7  1  0  0  0  0
  6  8  1  0  0  0  0
  8  9  1  0  0  0  0
  8 10  2  0  0  0  0
  9 11  1  0  0  0  0
  9 18  2  0  0  0  0
 11 12  1  0  0  0  0
 11 13  1  0  0  0  0
 13 14  1  0  0  0  0
 13 15  1  0  0  0  0
 13 21  1  0  0  0  0
 15 16  1  0  0  0  0
 15 17  1  0  0  0  0
 15 19  1  0  0  0  0
 18 19  1  0  0  0  0
 19 20  1  0  0  0  0
 21 22  1  0  0  0  0
 21 23  1  0  0  0  0
 21 25  1  0  0  0  0
 23 24  1  0  0  0  0
 25 26  1  0  0  0  0
 25 27  1  0  0  0  0
 25 29  1  0  0  0  0
 27 28  1  0  0  0  0
 29 30  1  0  0  0  0
 29 31  1  0  0  0  0
 29 32  1  0  0  0  0
M  END
$$$$
thf005_4lvy
  MOE2018           3D

 52 54  0  0  1  0  0  0  0  0999 V2000
    7.2270  -18.3830   27.6040 C   0  0  0  0  0  0  0  0  0  0  0  0
    8.2330  -17.5610   28.0730 C   0  0  0  0  0  0  0  0  0  0  0  0
    8.7010  -16.5050   27.3010 C   0  0  0  0  0  0  0  0  0  0  0  0
    8.0600  -16.2210   26.0930 C   0  0  0  0  0  0  0  0  0  0  0  0
    7.0460  -17.0490   25.6220 C   0  0  0  0  0  0  0  0  0  0  0  0
    6.6540  -18.1710   26.3570 C   0  0  0  0  0  0  0  0  0  0  0  0
    5.7190  -19.2750   25.8680 C   0  0  0  0  0  0  0  0  0  0  0  0
    4.8360  -18.8130   24.7240 C   0  0  0  0  0  0  0  0  0  0  0  0
    3.8740  -19.9300   24.3580 C   0  0  0  0  0  0  0  0  0  0  0  0
    3.8610  -20.5800   23.1620 C   0  0  0  0  0  0  0  0  0  0  0  0
    2.7020  -21.3240   23.0940 N   0  0  0  0  0  0  0  0  0  0  0  0
    1.9830  -21.1320   24.2280 C   0  0  0  0  0  0  0  0  0  0  0  0
    2.7240  -20.3410   25.0650 C   0  0  0  0  0  0  0  0  0  0  0  0
    2.1790  -20.0850   26.3630 C   0  0  0  0  0  0  0  0  0  0  0  0
    2.7230  -19.5300   27.3130 O   0  0  0  0  0  0  0  0  0  0  0  0
    0.9030  -20.5080   26.5830 N   0  0  0  0  0  0  0  0  0  0  0  0
    0.2220  -21.2040   25.6320 C   0  0  0  0  0  0  0  0  0  0  0  0
    0.7010  -21.5570   24.4860 N   0  0  0  0  0  0  0  0  0  0  0  0
   -1.0430  -21.4840   25.9610 N   0  0  0  0  0  0  0  0  0  0  0  0
    9.8860  -15.7850   27.7510 C   0  0  0  0  0  0  0  0  0  0  0  0
   11.0160  -16.0820   27.3960 O   0  0  0  0  0  0  0  0  0  0  0  0
    9.7550  -14.7990   28.6790 N   0  0  0  0  0  0  0  0  0  0  0  0
   10.9080  -14.0870   29.2480 C   0  0  3  0  0  0  0  0  0  0  0  0
   11.3040  -14.8890   30.5150 C   0  0  0  0  0  0  0  0  0  0  0  0
   12.6130  -14.3320   31.1230 C   0  0  0  0  0  0  0  0  0  0  0  0
   12.4200  -13.1010   32.0020 C   0  0  0  0  0  0  0  0  0  0  0  0
   12.6870  -11.9560   31.6780 O   0  0  0  0  0  0  0  0  0  0  0  0
   11.9020  -13.3440   33.2180 O   0  0  0  0  0  0  0  0  0  0  0  0
   10.4710  -12.6640   29.6150 C   0  0  0  0  0  0  0  0  0  0  0  0
    9.5730  -12.3800   30.4010 O   0  0  0  0  0  0  0  0  0  0  0  0
   11.0700  -11.6080   29.0320 O   0  0  0  0  0  0  0  0  0  0  0  0
    6.9170  -19.2100   28.1920 H   0  0  0  0  0  0  0  0  0  0  0  0
    8.6820  -17.7630   29.0120 H   0  0  0  0  0  0  0  0  0  0  0  0
    8.3800  -15.3930   25.5140 H   0  0  0  0  0  0  0  0  0  0  0  0
    6.6080  -16.8380   24.6820 H   0  0  0  0  0  0  0  0  0  0  0  0
    6.3200  -20.1210   25.5300 H   0  0  0  0  0  0  0  0  0  0  0  0
    5.1030  -19.6090   26.6990 H   0  0  0  0  0  0  0  0  0  0  0  0
    4.2660  -17.9340   25.0270 H   0  0  0  0  0  0  0  0  0  0  0  0
    5.4470  -18.5750   23.8530 H   0  0  0  0  0  0  0  0  0  0  0  0
    4.5370  -20.5300   22.3470 H   0  0  0  0  0  0  0  0  0  0  0  0
    2.3790  -21.8990   22.2990 H   0  0  0  0  0  0  0  0  0  0  0  0
    0.5050  -20.3330   27.5050 H   0  0  0  0  0  0  0  0  0  0  0  0
   -1.6070  -21.8410   25.1780 H   0  0  0  0  0  0  0  0  0  0  0  0
   -1.5100  -20.9020   26.6610 H   0  0  0  0  0  0  0  0  0  0  0  0
    8.8180  -14.5860   29.0530 H   0  0  0  0  0  0  0  0  0  0  0  0
   11.7320  -14.0400   28.5460 H   0  0  0  0  0  0  0  0  0  0  0  0
   11.4820  -15.9240   30.2190 H   0  0  0  0  0  0  0  0  0  0  0  0
   10.5000  -14.8710   31.2540 H   0  0  0  0  0  0  0  0  0  0  0  0
   13.0520  -15.1070   31.7520 H   0  0  0  0  0  0  0  0  0  0  0  0
   13.3300  -14.0990   30.3360 H   0  0  0  0  0  0  0  0  0  0  0  0
   11.8110  -12.4790   33.6200 H   0  0  0  0  0  0  0  0  0  0  0  0
   10.6960  -10.8480   29.4800 H   0  0  0  0  0  0  0  0  0  0  0  0
  1  2  1  0  0  0  0
  1  6  2  0  0  0  0
  1 32  1  0  0  0  0
  2  3  2  0  0  0  0
  2 33  1  0  0  0  0
  3  4  1  0  0  0  0
  3 20  1  0  0  0  0
  4  5  2  0  0  0  0
  4 34  1  0  0  0  0
  5  6  1  0  0  0  0
  5 35  1  0  0  0  0
  6  7  1  0  0  0  0
  7  8  1  0  0  0  0
  7 36  1  0  0  0  0
  7 37  1  0  0  0  0
  8  9  1  0  0  0  0
  8 38  1  0  0  0  0
  8 39  1  0  0  0  0
  9 10  2  0  0  0  0
  9 13  1  0  0  0  0
 10 11  1  0  0  0  0
 10 40  1  0  0  0  0
 11 12  1  0  0  0  0
 11 41  1  0  0  0  0
 12 13  2  0  0  0  0
 12 18  1  0  0  0  0
 13 14  1  0  0  0  0
 14 15  2  0  0  0  0
 14 16  1  0  0  0  0
 16 17  1  0  0  0  0
 16 42  1  0  0  0  0
 17 18  2  0  0  0  0
 17 19  1  0  0  0  0
 19 43  1  0  0  0  0
 19 44  1  0  0  0  0
 20 21  2  0  0  0  0
 20 22  1  0  0  0  0
 22 23  1  0  0  0  0
 22 45  1  0  0  0  0
 23 24  1  0  0  0  0
 23 29  1  0  0  0  0
 23 46  1  0  0  0  0
 24 25  1  0  0  0  0
 24 47  1  0  0  0  0
 24 48  1  0  0  0  0
 25 26  1  0  0  0  0
 25 49  1  0  0  0  0
 25 50  1  0  0  0  0
 26 27  2  0  0  0  0
 26 28  1  0  0  0  0
 28 51  1  0  0  0  0
 29 30  2  0  0  0  0
 29 31  1  0  0  0  0
 31 52  1  0  0  0  0
M  END
$$$$
thf006_4lvz
  MOE2018           3D

 17 18  0  0  0  0  0  0  0  0999 V2000
   -0.6730  -21.4010   25.9480 C   0  0  0  0  0  0  0  0  0  0  0  0
   -0.1170  -20.8760   26.9980 N   0  0  0  0  0  0  0  0  0  0  0  0
    1.1660  -20.5770   26.6160 C   0  0  0  0  0  0  0  0  0  0  0  0
    2.1550  -19.9970   27.3260 N   0  0  0  0  0  0  0  0  0  0  0  0
    3.2770  -19.8260   26.6700 C   0  0  0  0  0  0  0  0  0  0  0  0
    3.5750  -20.1780   25.3970 N   0  0  0  0  0  0  0  0  0  0  0  0
    2.6160  -20.7430   24.7240 C   0  0  0  0  0  0  0  0  0  0  0  0
    1.3720  -20.9510   25.3190 C   0  0  0  0  0  0  0  0  0  0  0  0
    0.1870  -21.4650   24.8990 N   0  0  0  0  0  0  0  0  0  0  0  0
    2.9090  -21.1140   23.4520 N   0  0  0  0  0  0  0  0  0  0  0  0
    4.2830  -19.2480   27.3460 N   0  0  0  0  0  0  0  0  0  0  0  0
   -1.6700  -21.7540   25.8560 H   0  0  0  0  0  0  0  0  0  0  0  0
   -0.0340  -21.8200   23.9560 H   0  0  0  0  0  0  0  0  0  0  0  0
    2.4620  -21.9700   23.1110 H   0  0  0  0  0  0  0  0  0  0  0  0
    3.9140  -21.0270   23.2470 H   0  0  0  0  0  0  0  0  0  0  0  0
    4.1660  -19.3600   28.3560 H   0  0  0  0  0  0  0  0  0  0  0  0
    5.1920  -19.4960   26.9460 H   0  0  0  0  0  0  0  0  0  0  0  0
  1  2  2  0  0  0  0
  1  9  1  0  0  0  0
  1 12  1  0  0  0  0
  2  3  1  0  0  0  0
  3  4  1  0  0  0  0
  3  8  2  0  0  0  0
  4  5  2  0  0  0  0
  5  6  1  0  0  0  0
  5 11  1  0  0  0  0
  6  7  2  0  0  0  0
  7  8  1  0  0  0  0
  7 10  1  0  0  0  0
  8  9  1  0  0  0  0
  9 13  1  0  0  0  0
 10 14  1  0  0  0  0
 10 15  1  0  0  0  0
 11 16  1  0  0  0  0
 11 17  1  0  0  0  0
M  END
$$$$
thf007_4lw0
  MOE2018           3D

 15 16  0  0  0  0  0  0  0  0999 V2000
   -0.2930  -21.3280   25.9750 C   0  0  0  0  0  0  0  0  0  0  0  0
    0.3930  -20.7000   26.8840 N   0  0  0  0  0  0  0  0  0  0  0  0
    1.6230  -20.4910   26.3200 C   0  0  0  0  0  0  0  0  0  0  0  0
    2.7180  -19.9000   26.8450 N   0  0  0  0  0  0  0  0  0  0  0  0
    3.7930  -19.8400   26.0840 C   0  0  0  0  0  0  0  0  0  0  0  0
    3.8800  -20.3200   24.8080 N   0  0  0  0  0  0  0  0  0  0  0  0
    2.8240  -20.8860   24.2950 C   0  0  0  0  0  0  0  0  0  0  0  0
    1.6600  -20.9920   25.0520 C   0  0  0  0  0  0  0  0  0  0  0  0
    0.4350  -21.5330   24.8460 N   0  0  0  0  0  0  0  0  0  0  0  0
    2.9380  -21.3320   23.0220 N   0  0  0  0  0  0  0  0  0  0  0  0
   -1.2970  -21.6670   26.0450 H   0  0  0  0  0  0  0  0  0  0  0  0
    4.6600  -19.3810   26.4910 H   0  0  0  0  0  0  0  0  0  0  0  0
    0.1130  -22.0270   23.9990 H   0  0  0  0  0  0  0  0  0  0  0  0
    2.0990  -21.2820   22.4370 H   0  0  0  0  0  0  0  0  0  0  0  0
    3.8110  -21.0170   22.5760 H   0  0  0  0  0  0  0  0  0  0  0  0
  1  2  2  0  0  0  0
  1  9  1  0  0  0  0
  1 11  1  0  0  0  0
  2  3  1  0  0  0  0
  3  4  1  0  0  0  0
  3  8  2  0  0  0  0
  4  5  2  0  0  0  0
  5  6  1  0  0  0  0
  5 12  1  0  0  0  0
  6  7  2  0  0  0  0
  7  8  1  0  0  0  0
  7 10  1  0  0  0  0
  8  9  1  0  0  0  0
  9 13  1  0  0  0  0
 10 14  1  0  0  0  0
 10 15  1  0  0  0  0
M  END
$$$$
thf008
  MOE2018           3D

 57 59  0  0  1  0  0  0  0  0999 V2000
    4.1580  -20.5950   25.3380 C   0  0  0  0  0  0  0  0  0  0  0  0
    4.2200  -19.6640   24.1340 C   0  0  3  0  0  0  0  0  0  0  0  0
    3.9000  -20.5550   22.9020 C   0  0  0  0  0  0  0  0  0  0  0  0
    2.6200  -21.3040   23.1670 N   0  0  0  0  0  0  0  0  0  0  0  0
    1.9780  -21.1980   24.3790 C   0  0  0  0  0  0  0  0  0  0  0  0
    2.6840  -20.7230   25.4420 C   0  0  0  0  0  0  0  0  0  0  0  0
    2.0010  -20.2960   26.5840 C   0  0  0  0  0  0  0  0  0  0  0  0
    2.4910  -19.6720   27.5330 O   0  0  0  0  0  0  0  0  0  0  0  0
    0.6920  -20.6250   26.6460 N   0  0  0  0  0  0  0  0  0  0  0  0
    0.0940  -21.2340   25.6020 C   0  0  0  0  0  0  0  0  0  0  0  0
    0.6630  -21.5270   24.4730 N   0  0  0  0  0  0  0  0  0  0  0  0
   -1.1740  -21.5300   25.8620 N   0  0  0  0  0  0  0  0  0  0  0  0
    5.5600  -18.9400   24.2780 C   0  0  0  0  0  0  0  0  0  0  0  0
    5.3360  -17.8440   25.3360 C   0  0  0  0  0  0  0  0  0  0  0  0
    6.6430  -17.4640   25.9650 C   0  0  0  0  0  0  0  0  0  0  0  0
    7.0550  -18.0100   27.1760 C   0  0  0  0  0  0  0  0  0  0  0  0
    8.1780  -17.5020   27.8140 C   0  0  0  0  0  0  0  0  0  0  0  0
    8.8960  -16.4530   27.2330 C   0  0  0  0  0  0  0  0  0  0  0  0
    8.5100  -15.9680   25.9910 C   0  0  0  0  0  0  0  0  0  0  0  0
    7.3910  -16.4680   25.3620 C   0  0  0  0  0  0  0  0  0  0  0  0
   10.0380  -15.8360   27.8790 C   0  0  0  0  0  0  0  0  0  0  0  0
   11.1720  -16.0550   27.5060 O   0  0  0  0  0  0  0  0  0  0  0  0
    9.7750  -14.9350   28.8730 N   0  0  0  0  0  0  0  0  0  0  0  0
   10.6380  -14.2300   29.8620 C   0  0  3  0  0  0  0  0  0  0  0  0
   12.1460  -14.5510   29.8000 C   0  0  0  0  0  0  0  0  0  0  0  0
   12.7820  -14.4260   31.2010 C   0  0  0  0  0  0  0  0  0  0  0  0
   12.4020  -13.2460   32.0900 C   0  0  0  0  0  0  0  0  0  0  0  0
   11.9060  -13.3510   33.1910 O   0  0  0  0  0  0  0  0  0  0  0  0
   12.7050  -12.0200   31.6590 O   0  0  0  0  0  0  0  0  0  0  0  0
   10.4120  -12.7180   29.7290 C   0  0  0  0  0  0  0  0  0  0  0  0
   11.0230  -11.8490   29.1280 O   0  0  0  0  0  0  0  0  0  0  0  0
    9.4460  -12.1770   30.4610 O   0  0  0  0  0  0  0  0  0  0  0  0
    4.5940  -21.5590   25.1060 H   0  0  0  0  0  0  0  0  0  0  0  0
    4.5650  -20.2000   26.2560 H   0  0  0  0  0  0  0  0  0  0  0  0
    3.4450  -18.8900   24.1490 H   0  0  0  0  0  0  0  0  0  0  0  0
    3.7900  -19.9240   22.0190 H   0  0  0  0  0  0  0  0  0  0  0  0
    4.7130  -21.2640   22.7340 H   0  0  0  0  0  0  0  0  0  0  0  0
    2.0040  -21.5500   22.3770 H   0  0  0  0  0  0  0  0  0  0  0  0
    0.1730  -20.3680   27.4840 H   0  0  0  0  0  0  0  0  0  0  0  0
   -1.6760  -22.0650   25.1420 H   0  0  0  0  0  0  0  0  0  0  0  0
   -1.5750  -21.4360   26.7990 H   0  0  0  0  0  0  0  0  0  0  0  0
    6.3490  -19.6320   24.5850 H   0  0  0  0  0  0  0  0  0  0  0  0
    5.8450  -18.4750   23.3330 H   0  0  0  0  0  0  0  0  0  0  0  0
    4.6480  -18.1260   26.1330 H   0  0  0  0  0  0  0  0  0  0  0  0
    4.8950  -16.9700   24.8530 H   0  0  0  0  0  0  0  0  0  0  0  0
    6.4940  -18.7890   27.6280 H   0  0  0  0  0  0  0  0  0  0  0  0
    8.4880  -17.9020   28.7450 H   0  0  0  0  0  0  0  0  0  0  0  0
    9.0770  -15.1980   25.5300 H   0  0  0  0  0  0  0  0  0  0  0  0
    7.0920  -16.0680   24.4270 H   0  0  0  0  0  0  0  0  0  0  0  0
    8.7710  -14.7600   29.0230 H   0  0  0  0  0  0  0  0  0  0  0  0
   10.2750  -14.5230   30.8390 H   0  0  0  0  0  0  0  0  0  0  0  0
   12.6460  -13.8970   29.0830 H   0  0  0  0  0  0  0  0  0  0  0  0
   12.3110  -15.5830   29.5010 H   0  0  0  0  0  0  0  0  0  0  0  0
   12.5420  -15.3290   31.7630 H   0  0  0  0  0  0  0  0  0  0  0  0
   13.8640  -14.4040   31.0770 H   0  0  0  0  0  0  0  0  0  0  0  0
   12.4420  -11.4380   32.3720 H   0  0  0  0  0  0  0  0  0  0  0  0
    9.5320  -11.2480   30.2370 H   0  0  0  0  0  0  0  0  0  0  0  0
  1  2  1  0  0  0  0
  1  6  1  0  0  0  0
  1 33  1  0  0  0  0
  1 34  1  0  0  0  0
  2  3  1  0  0  0  0
  2 13  1  0  0  0  0
  2 35  1  0  0  0  0
  3  4  1  0  0  0  0
  3 36  1  0  0  0  0
  3 37  1  0  0  0  0
  4  5  1  0  0  0  0
  4 38  1  0  0  0  0
  5  6  2  0  0  0  0
  5 11  1  0  0  0  0
  6  7  1  0  0  0  0
  7  8  2  0  0  0  0
  7  9  1  0  0  0  0
  9 10  1  0  0  0  0
  9 39  1  0  0  0  0
 10 11  2  0  0  0  0
 10 12  1  0  0  0  0
 12 40  1  0  0  0  0
 12 41  1  0  0  0  0
 13 14  1  0  0  0  0
 13 42  1  0  0  0  0
 13 43  1  0  0  0  0
 14 15  1  0  0  0  0
 14 44  1  0  0  0  0
 14 45  1  0  0  0  0
 15 16  1  0  0  0  0
 15 20  2  0  0  0  0
 16 17  2  0  0  0  0
 16 46  1  0  0  0  0
 17 18  1  0  0  0  0
 17 47  1  0  0  0  0
 18 19  2  0  0  0  0
 18 21  1  0  0  0  0
 19 20  1  0  0  0  0
 19 48  1  0  0  0  0
 20 49  1  0  0  0  0
 21 22  2  0  0  0  0
 21 23  1  0  0  0  0
 23 24  1  0  0  0  0
 23 50  1  0  0  0  0
 24 25  1  0  0  0  0
 24 30  1  0  0  0  0
 24 51  1  0  0  0  0
 25 26  1  0  0  0  0
 25 52  1  0  0  0  0
 25 53  1  0  0  0  0
 26 27  1  0  0  0  0
 26 54  1  0  0  0  0
 26 55  1  0  0  0  0
 27 28  2  0  0  0  0
 27 29  1  0  0  0  0
 29 56  1  0  0  0  0
 30 31  2  0  0  0  0
 30 32  1  0  0  0  0
 32 57  1  0  0  0  0
M  END
$$$$
thf009
  MOE2018           3D

 27 28  0  0  1  0  0  0  0  0999 V2000
    5.4910  -22.1110   25.1130 C   0  0  0  0  0  0  0  0  0  0  0  0
    5.1990  -20.9740   24.1290 C   0  0  3  0  0  0  0  0  0  0  0  0
    4.3510  -21.4310   22.8850 C   0  0  3  0  0  0  0  0  0  0  0  0
    2.8900  -21.2850   23.0430 N   0  0  0  0  0  0  0  0  0  0  0  0
    2.3860  -20.9430   24.2750 C   0  0  0  0  0  0  0  0  0  0  0  0
    3.1530  -20.2660   25.1940 C   0  0  0  0  0  0  0  0  0  0  0  0
    4.5280  -19.9130   24.8900 N   0  0  0  0  0  0  0  0  0  0  0  0
    2.5650  -19.9630   26.4530 C   0  0  0  0  0  0  0  0  0  0  0  0
    3.1230  -19.3900   27.4000 O   0  0  0  0  0  0  0  0  0  0  0  0
    1.2790  -20.3710   26.6510 N   0  0  0  0  0  0  0  0  0  0  0  0
    0.6100  -21.0250   25.6720 C   0  0  0  0  0  0  0  0  0  0  0  0
    1.0980  -21.3200   24.5130 N   0  0  0  0  0  0  0  0  0  0  0  0
   -0.6450  -21.3610   25.9910 N   0  0  0  0  0  0  0  0  0  0  0  0
    4.6780  -20.5570   21.6770 C   0  0  0  0  0  0  0  0  0  0  0  0
    6.0810  -22.8800   24.6150 H   0  0  0  0  0  0  0  0  0  0  0  0
    4.5610  -22.5580   25.4650 H   0  0  0  0  0  0  0  0  0  0  0  0
    6.0540  -21.7300   25.9640 H   0  0  0  0  0  0  0  0  0  0  0  0
    6.1640  -20.6210   23.7600 H   0  0  0  0  0  0  0  0  0  0  0  0
    4.6240  -22.4590   22.6440 H   0  0  0  0  0  0  0  0  0  0  0  0
    2.2900  -21.9510   22.5410 H   0  0  0  0  0  0  0  0  0  0  0  0
    5.0250  -19.6850   25.7670 H   0  0  0  0  0  0  0  0  0  0  0  0
    0.8580  -20.1960   27.5630 H   0  0  0  0  0  0  0  0  0  0  0  0
   -1.2000  -21.6950   25.1930 H   0  0  0  0  0  0  0  0  0  0  0  0
   -1.1270  -20.8310   26.7230 H   0  0  0  0  0  0  0  0  0  0  0  0
    5.7380  -20.6290   21.4370 H   0  0  0  0  0  0  0  0  0  0  0  0
    4.0940  -20.8840   20.8170 H   0  0  0  0  0  0  0  0  0  0  0  0
    4.4270  -19.5190   21.9040 H   0  0  0  0  0  0  0  0  0  0  0  0
  1  2  1  0  0  0  0
  1 15  1  0  0  0  0
  1 16  1  0  0  0  0
  1 17  1  0  0  0  0
  2  3  1  0  0  0  0
  2  7  1  0  0  0  0
  2 18  1  0  0  0  0
  3  4  1  0  0  0  0
  3 14  1  0  0  0  0
  3 19  1  0  0  0  0
  4  5  1  0  0  0  0
  4 20  1  0  0  0  0
  5  6  2  0  0  0  0
  5 12  1  0  0  0  0
  6  7  1  0  0  0  0
  6  8  1  0  0  0  0
  7 21  1  0  0  0  0
  8  9  2  0  0  0  0
  8 10  1  0  0  0  0
 10 11  1  0  0  0  0
 10 22  1  0  0  0  0
 11 12  2  0  0  0  0
 11 13  1  0  0  0  0
 13 23  1  0  0  0  0
 13 24  1  0  0  0  0
 14 25  1  0  0  0  0
 14 26  1  0  0  0  0
 14 27  1  0  0  0  0
M  END
$$$$
thf010
  MOE2018           3D

 15 16  0  0  0  0  0  0  0  0999 V2000
    2.6500  -20.7350   24.6650 C   0  0  0  0  0  0  0  0  0  0  0  0
    1.4160  -20.9390   25.2730 C   0  0  0  0  0  0  0  0  0  0  0  0
    1.1900  -20.5760   26.5720 C   0  0  0  0  0  0  0  0  0  0  0  0
    2.1580  -20.0040   27.2930 N   0  0  0  0  0  0  0  0  0  0  0  0
    3.2850  -19.8290   26.6590 C   0  0  0  0  0  0  0  0  0  0  0  0
    3.5840  -20.1750   25.3830 N   0  0  0  0  0  0  0  0  0  0  0  0
    4.2860  -19.2570   27.3360 N   0  0  0  0  0  0  0  0  0  0  0  0
   -0.0880  -20.8870   26.9350 N   0  0  0  0  0  0  0  0  0  0  0  0
   -0.6250  -21.4180   25.8840 C   0  0  0  0  0  0  0  0  0  0  0  0
    0.2460  -21.4710   24.8510 N   0  0  0  0  0  0  0  0  0  0  0  0
    2.8420  -21.0170   23.6600 H   0  0  0  0  0  0  0  0  0  0  0  0
    4.1670  -19.3650   28.3470 H   0  0  0  0  0  0  0  0  0  0  0  0
    5.1960  -19.4980   26.9370 H   0  0  0  0  0  0  0  0  0  0  0  0
   -1.6160  -21.7850   25.7830 H   0  0  0  0  0  0  0  0  0  0  0  0
    0.0400  -21.8530   23.9140 H   0  0  0  0  0  0  0  0  0  0  0  0
  1  2  1  0  0  0  0
  1  6  2  0  0  0  0
  1 11  1  0  0  0  0
  2  3  2  0  0  0  0
  2 10  1  0  0  0  0
  3  4  1  0  0  0  0
  3  8  1  0  0  0  0
  4  5  2  0  0  0  0
  5  6  1  0  0  0  0
  5  7  1  0  0  0  0
  7 12  1  0  0  0  0
  7 13  1  0  0  0  0
  8  9  2  0  0  0  0
  9 10  1  0  0  0  0
  9 14  1  0  0  0  0
 10 15  1  0  0  0  0
M  END
$$$$
thf011
  MOE2018           3D

 17 18  0  0  0  0  0  0  0  0999 V2000
    3.8450  -19.8250   26.0730 C   0  0  0  0  0  0  0  0  0  0  0  0
    3.9350  -20.3020   24.8040 N   0  0  0  0  0  0  0  0  0  0  0  0
    2.8790  -20.8670   24.2940 C   0  0  0  0  0  0  0  0  0  0  0  0
    1.7260  -20.9710   25.0450 C   0  0  0  0  0  0  0  0  0  0  0  0
    1.6780  -20.4740   26.3120 C   0  0  0  0  0  0  0  0  0  0  0  0
    2.7690  -19.8870   26.8310 N   0  0  0  0  0  0  0  0  0  0  0  0
    0.4580  -20.6800   26.8760 N   0  0  0  0  0  0  0  0  0  0  0  0
   -0.1980  -21.3050   25.9550 C   0  0  0  0  0  0  0  0  0  0  0  0
    0.5100  -21.5120   24.8270 N   0  0  0  0  0  0  0  0  0  0  0  0
   -1.4810  -21.7190   26.0830 N   0  0  0  0  0  0  0  0  0  0  0  0
    2.9630  -21.3240   23.0260 N   0  0  0  0  0  0  0  0  0  0  0  0
    4.7090  -19.3660   26.4820 H   0  0  0  0  0  0  0  0  0  0  0  0
    0.1680  -21.9930   23.9850 H   0  0  0  0  0  0  0  0  0  0  0  0
   -1.7850  -22.5390   25.5440 H   0  0  0  0  0  0  0  0  0  0  0  0
   -1.8260  -21.6640   27.0540 H   0  0  0  0  0  0  0  0  0  0  0  0
    3.8340  -21.0190   22.5690 H   0  0  0  0  0  0  0  0  0  0  0  0
    2.1180  -21.2210   22.4550 H   0  0  0  0  0  0  0  0  0  0  0  0
  1  2  1  0  0  0  0
  1  6  2  0  0  0  0
  1 12  1  0  0  0  0
  2  3  2  0  0  0  0
  3  4  1  0  0  0  0
  3 11  1  0  0  0  0
  4  5  2  0  0  0  0
  4  9  1  0  0  0  0
  5  6  1  0  0  0  0
  5  7  1  0  0  0  0
  7  8  2  0  0  0  0
  8  9  1  0  0  0  0
  8 10  1  0  0  0  0
  9 13  1  0  0  0  0
 10 14  1  0  0  0  0
 10 15  1  0  0  0  0
 11 16  1  0  0  0  0
 11 17  1  0  0  0  0
M  END
$$$$
thf012
  MOE2018           3D

 53 55  0  0  1  0  0  0  0  0999 V2000
    3.5750  -21.5140   23.1490 C   0  0  0  0  0  0  0  0  0  0  0  0
    4.2800  -20.6910   24.2380 C   0  0  0  0  0  0  0  0  0  0  0  0
    3.7320  -20.1010   25.2060 N   0  0  0  0  0  0  0  0  0  0  0  0
    2.3470  -20.2650   25.3730 C   0  0  0  0  0  0  0  0  0  0  0  0
    1.5840  -21.0000   24.4810 C   0  0  0  0  0  0  0  0  0  0  0  0
    2.1180  -21.5540   23.3600 N   0  0  0  0  0  0  0  0  0  0  0  0
    0.2960  -21.3280   24.6910 N   0  0  0  0  0  0  0  0  0  0  0  0
   -0.2070  -20.9510   25.8210 C   0  0  0  0  0  0  0  0  0  0  0  0
    0.4440  -20.2450   26.7660 N   0  0  0  0  0  0  0  0  0  0  0  0
    1.7320  -19.8540   26.5790 C   0  0  0  0  0  0  0  0  0  0  0  0
    2.2640  -19.2430   27.5180 O   0  0  0  0  0  0  0  0  0  0  0  0
   -1.4490  -21.2580   26.1530 N   0  0  0  0  0  0  0  0  0  0  0  0
    5.7650  -20.7940   24.2710 C   0  0  0  0  0  0  0  0  0  0  0  0
    6.0020  -21.9020   25.2320 N   0  0  0  0  0  0  0  0  0  0  0  0
    7.2820  -22.3580   25.1450 C   0  0  0  0  0  0  0  0  0  0  0  0
    7.6950  -22.9230   23.9470 C   0  0  0  0  0  0  0  0  0  0  0  0
    9.0350  -23.1280   23.7360 C   0  0  0  0  0  0  0  0  0  0  0  0
    9.9710  -22.7910   24.7180 C   0  0  0  0  0  0  0  0  0  0  0  0
    9.5190  -22.3600   25.9740 C   0  0  0  0  0  0  0  0  0  0  0  0
    8.1720  -22.1450   26.1920 C   0  0  0  0  0  0  0  0  0  0  0  0
   11.3740  -22.8370   24.3530 C   0  0  0  0  0  0  0  0  0  0  0  0
   11.7530  -23.3150   23.2950 O   0  0  0  0  0  0  0  0  0  0  0  0
   12.3100  -22.2280   25.1280 N   0  0  0  0  0  0  0  0  0  0  0  0
   13.4680  -21.6220   24.4590 C   0  0  3  0  0  0  0  0  0  0  0  0
   13.5560  -20.1710   24.9720 C   0  0  0  0  0  0  0  0  0  0  0  0
   14.6600  -19.4270   24.1960 C   0  0  0  0  0  0  0  0  0  0  0  0
   16.0220  -19.5120   24.8680 C   0  0  0  0  0  0  0  0  0  0  0  0
   16.2820  -19.0860   25.9720 O   0  0  0  0  0  0  0  0  0  0  0  0
   16.9980  -20.1060   24.1780 O   0  0  0  0  0  0  0  0  0  0  0  0
   14.7420  -22.4140   24.7300 C   0  0  0  0  0  0  0  0  0  0  0  0
   15.4280  -22.8950   23.8520 O   0  0  0  0  0  0  0  0  0  0  0  0
   15.3870  -22.3610   25.9010 O   0  0  0  0  0  0  0  0  0  0  0  0
    3.9600  -22.5240   23.2110 H   0  0  0  0  0  0  0  0  0  0  0  0
    3.7830  -21.0560   22.1910 H   0  0  0  0  0  0  0  0  0  0  0  0
    1.5160  -22.2220   22.8560 H   0  0  0  0  0  0  0  0  0  0  0  0
   -0.0070  -19.9850   27.6440 H   0  0  0  0  0  0  0  0  0  0  0  0
   -1.8690  -20.9760   27.0430 H   0  0  0  0  0  0  0  0  0  0  0  0
   -1.9940  -21.8000   25.4700 H   0  0  0  0  0  0  0  0  0  0  0  0
    6.1250  -21.0250   23.2780 H   0  0  0  0  0  0  0  0  0  0  0  0
    6.1740  -19.8740   24.6690 H   0  0  0  0  0  0  0  0  0  0  0  0
    5.7090  -21.6080   26.1820 H   0  0  0  0  0  0  0  0  0  0  0  0
    6.9860  -23.1690   23.2000 H   0  0  0  0  0  0  0  0  0  0  0  0
    9.3630  -23.5260   22.8090 H   0  0  0  0  0  0  0  0  0  0  0  0
   10.2070  -22.1760   26.7570 H   0  0  0  0  0  0  0  0  0  0  0  0
    7.8200  -21.7870   27.1250 H   0  0  0  0  0  0  0  0  0  0  0  0
   12.0280  -21.8390   26.0340 H   0  0  0  0  0  0  0  0  0  0  0  0
   13.3300  -21.5990   23.3850 H   0  0  0  0  0  0  0  0  0  0  0  0
   13.7520  -20.1410   26.0470 H   0  0  0  0  0  0  0  0  0  0  0  0
   12.6020  -19.6800   24.7730 H   0  0  0  0  0  0  0  0  0  0  0  0
   14.7330  -19.7860   23.1680 H   0  0  0  0  0  0  0  0  0  0  0  0
   14.4040  -18.3690   24.1550 H   0  0  0  0  0  0  0  0  0  0  0  0
   17.7600  -20.0530   24.7550 H   0  0  0  0  0  0  0  0  0  0  0  0
   16.1880  -22.8520   25.7120 H   0  0  0  0  0  0  0  0  0  0  0  0
  1  2  1  0  0  0  0
  1  6  1  0  0  0  0
  1 33  1  0  0  0  0
  1 34  1  0  0  0  0
  2  3  2  0  0  0  0
  2 13  1  0  0  0  0
  3  4  1  0  0  0  0
  4  5  2  0  0  0  0
  4 10  1  0  0  0  0
  5  6  1  0  0  0  0
  5  7  1  0  0  0  0
  6 35  1  0  0  0  0
  7  8  2  0  0  0  0
  8  9  1  0  0  0  0
  8 12  1  0  0  0  0
  9 10  1  0  0  0  0
  9 36  1  0  0  0  0
 10 11  2  0  0  0  0
 12 37  1  0  0  0  0
 12 38  1  0  0  0  0
 13 14  1  0  0  0  0
 13 39  1  0  0  0  0
 13 40  1  0  0  0  0
 14 15  1  0  0  0  0
 14 41  1  0  0  0  0
 15 16  1  0  0  0  0
 15 20  2  0  0  0  0
 16 17  2  0  0  0  0
 16 42  1  0  0  0  0
 17 18  1  0  0  0  0
 17 43  1  0  0  0  0
 18 19  2  0  0  0  0
 18 21  1  0  0  0  0
 19 20  1  0  0  0  0
 19 44  1  0  0  0  0
 20 45  1  0  0  0  0
 21 22  2  0  0  0  0
 21 23  1  0  0  0  0
 23 24  1  0  0  0  0
 23 46  1  0  0  0  0
 24 25  1  0  0  0  0
 24 30  1  0  0  0  0
 24 47  1  0  0  0  0
 25 26  1  0  0  0  0
 25 48  1  0  0  0  0
 25 49  1  0  0  0  0
 26 27  1  0  0  0  0
 26 50  1  0  0  0  0
 26 51  1  0  0  0  0
 27 28  2  0  0  0  0
 27 29  1  0  0  0  0
 29 52  1  0  0  0  0
 30 31  2  0  0  0  0
 30 32  1  0  0  0  0
 32 53  1  0  0  0  0
M  END
$$$$
thf013
  MOE2018           3D

 17 17  0  0  0  0  0  0  0  0999 V2000
    3.1860  -20.2930   25.1500 C   0  0  0  0  0  0  0  0  0  0  0  0
    2.3950  -20.9280   24.2250 C   0  0  0  0  0  0  0  0  0  0  0  0
    1.1090  -21.3010   24.4720 N   0  0  0  0  0  0  0  0  0  0  0  0
    0.6320  -21.0230   25.6410 C   0  0  0  0  0  0  0  0  0  0  0  0
    1.3130  -20.3790   26.6180 N   0  0  0  0  0  0  0  0  0  0  0  0
    2.6030  -19.9850   26.4160 C   0  0  0  0  0  0  0  0  0  0  0  0
    3.1620  -19.4120   27.3610 O   0  0  0  0  0  0  0  0  0  0  0  0
   -0.6170  -21.3660   25.9740 N   0  0  0  0  0  0  0  0  0  0  0  0
    2.8660  -21.2190   22.9740 N   0  0  0  0  0  0  0  0  0  0  0  0
    4.5650  -19.9770   24.8390 N   0  0  0  0  0  0  0  0  0  0  0  0
    0.8740  -20.1370   27.5070 H   0  0  0  0  0  0  0  0  0  0  0  0
   -1.0740  -21.9950   25.3020 H   0  0  0  0  0  0  0  0  0  0  0  0
   -0.8660  -21.4500   26.9640 H   0  0  0  0  0  0  0  0  0  0  0  0
    2.0980  -21.4120   22.3180 H   0  0  0  0  0  0  0  0  0  0  0  0
    3.5530  -20.5270   22.6430 H   0  0  0  0  0  0  0  0  0  0  0  0
    4.9780  -20.7550   24.3020 H   0  0  0  0  0  0  0  0  0  0  0  0
    5.0880  -19.8050   25.7150 H   0  0  0  0  0  0  0  0  0  0  0  0
  1  2  2  0  0  0  0
  1  6  1  0  0  0  0
  1 10  1  0  0  0  0
  2  3  1  0  0  0  0
  2  9  1  0  0  0  0
  3  4  2  0  0  0  0
  4  5  1  0  0  0  0
  4  8  1  0  0  0  0
  5  6  1  0  0  0  0
  5 11  1  0  0  0  0
  6  7  2  0  0  0  0
  8 12  1  0  0  0  0
  8 13  1  0  0  0  0
  9 14  1  0  0  0  0
  9 15  1  0  0  0  0
 10 16  1  0  0  0  0
 10 17  1  0  0  0  0
M  END
$$$$
