hcv001_3tzr
  PyMOL2.2          3D                             0

 53 55  0  0  1  0  0  0  0  0999 V2000
    5.2274   -6.3848  -15.0620 C   0  0  0  0  0  0  0  0  0  0  0  0
    6.4317   -6.8618  -14.3592 N   0  0  0  0  0  0  0  0  0  0  0  0
    7.4464   -7.0135  -15.3919 C   0  0  0  0  0  0  0  0  0  0  0  0
    6.1028   -8.1532  -13.8505 C   0  0  0  0  0  0  0  0  0  0  0  0
    7.1704   -8.8594  -13.0855 C   0  0  0  0  0  0  0  0  0  0  0  0
    7.6594   -8.2541  -11.8405 C   0  0  0  0  0  0  0  0  0  0  0  0
    8.2339   -6.9518  -11.8416 N   0  0  0  0  0  0  0  0  0  0  0  0
    9.5123   -6.5567  -11.9717 C   0  0  0  0  0  0  0  0  0  0  0  0
    9.5344   -5.1782  -11.9363 C   0  0  0  0  0  0  0  0  0  0  0  0
   10.7127   -4.4603  -12.0322 C   0  0  0  0  0  0  0  0  0  0  0  0
   11.8902   -5.1562  -12.1640 C   0  0  0  0  0  0  0  0  0  0  0  0
   11.8855   -6.5585  -12.1987 C   0  0  0  0  0  0  0  0  0  0  0  0
   10.7167   -7.2802  -12.1047 C   0  0  0  0  0  0  0  0  0  0  0  0
   10.6763   -8.7245  -12.1009 C   0  0  0  0  0  0  0  0  0  0  0  0
   12.0581   -9.2896  -12.4817 C   0  0  1  0  0  0  0  0  0  0  0  0
   13.1561   -8.5448  -11.7768 C   0  0  0  0  0  0  0  0  0  0  0  0
   13.0898   -7.2178  -12.3300 O   0  0  0  0  0  0  0  0  0  0  0  0
   12.1647  -10.7381  -12.1312 C   0  0  0  0  0  0  0  0  0  0  0  0
   13.3928  -11.3598  -12.4355 N   0  0  0  0  0  0  0  0  0  0  0  0
   13.7462  -11.5357  -13.7917 C   0  0  0  0  0  0  0  0  0  0  0  0
   14.4293  -11.3114  -11.4737 C   0  0  0  0  0  0  0  0  0  0  0  0
    8.2767   -4.7155  -11.7824 N   0  0  0  0  0  0  0  0  0  0  0  0
    7.4891   -5.7894  -11.7233 C   0  0  0  0  0  0  0  0  0  0  0  0
    6.0720   -5.7167  -11.5276 N   0  0  0  0  0  0  0  0  0  0  0  0
    5.0076   -7.1935  -15.8133 H   0  0  0  0  0  0  0  0  0  0  0  0
    4.3937   -6.4233  -14.3297 H   0  0  0  0  0  0  0  0  0  0  0  0
    5.3760   -5.4148  -15.5366 H   0  0  0  0  0  0  0  0  0  0  0  0
    8.4258   -6.5926  -15.0803 H   0  0  0  0  0  0  0  0  0  0  0  0
    7.6180   -8.0994  -15.6314 H   0  0  0  0  0  0  0  0  0  0  0  0
    7.1450   -6.5446  -16.3605 H   0  0  0  0  0  0  0  0  0  0  0  0
    5.6865   -8.7605  -14.6811 H   0  0  0  0  0  0  0  0  0  0  0  0
    5.2259   -8.0269  -13.1473 H   0  0  0  0  0  0  0  0  0  0  0  0
    6.6809   -9.8456  -12.7882 H   0  0  0  0  0  0  0  0  0  0  0  0
    8.0028   -9.0572  -13.7896 H   0  0  0  0  0  0  0  0  0  0  0  0
    6.6973   -8.1414  -11.2251 H   0  0  0  0  0  0  0  0  0  0  0  0
    8.1720   -8.9707  -11.1444 H   0  0  0  0  0  0  0  0  0  0  0  0
   10.6858   -3.3834  -12.0027 H   0  0  0  0  0  0  0  0  0  0  0  0
   12.8432   -4.6541  -12.2449 H   0  0  0  0  0  0  0  0  0  0  0  0
   10.5087   -9.2050  -11.1275 H   0  0  0  0  0  0  0  0  0  0  0  0
   10.0409   -9.0918  -12.9214 H   0  0  0  0  0  0  0  0  0  0  0  0
   12.2313   -9.1930  -13.5670 H   0  0  0  0  0  0  0  0  0  0  0  0
   13.0401   -8.5277  -10.6742 H   0  0  0  0  0  0  0  0  0  0  0  0
   14.1029   -8.9514  -12.1295 H   0  0  0  0  0  0  0  0  0  0  0  0
   11.3492  -11.2774  -12.6615 H   0  0  0  0  0  0  0  0  0  0  0  0
   11.9497  -10.9251  -11.0397 H   0  0  0  0  0  0  0  0  0  0  0  0
   14.7472  -11.1157  -14.0724 H   0  0  0  0  0  0  0  0  0  0  0  0
   13.8155  -12.6212  -14.0187 H   0  0  0  0  0  0  0  0  0  0  0  0
   12.9511  -11.1075  -14.4573 H   0  0  0  0  0  0  0  0  0  0  0  0
   15.4034  -10.9379  -11.8185 H   0  0  0  0  0  0  0  0  0  0  0  0
   14.5805  -12.3601  -11.0954 H   0  0  0  0  0  0  0  0  0  0  0  0
   14.0421  -10.7662  -10.5695 H   0  0  0  0  0  0  0  0  0  0  0  0
    5.6679   -6.1874  -10.7013 H   0  0  0  0  0  0  0  0  0  0  0  0
    5.4909   -5.2121  -12.1911 H   0  0  0  0  0  0  0  0  0  0  0  0
  1  2  1  0  0  0  0
  2  3  1  0  0  0  0
  2  4  1  0  0  0  0
  4  5  1  0  0  0  0
  5  6  1  0  0  0  0
  6  7  1  0  0  0  0
  7  8  1  0  0  0  0
  8  9  2  0  0  0  0
  9 10  1  0  0  0  0
 10 11  2  0  0  0  0
 11 12  1  0  0  0  0
 12 13  2  0  0  0  0
 13 14  1  0  0  0  0
 14 15  1  0  0  0  0
 15 16  1  0  0  0  0
 16 17  1  0  0  0  0
 15 18  1  0  0  0  0
 18 19  1  0  0  0  0
 19 20  1  0  0  0  0
 19 21  1  0  0  0  0
  9 22  1  0  0  0  0
 22 23  2  0  0  0  0
 23 24  1  0  0  0  0
  7 23  1  0  0  0  0
  8 13  1  0  0  0  0
 12 17  1  0  0  0  0
  1 25  1  0  0  0  0
  1 26  1  0  0  0  0
  1 27  1  0  0  0  0
  3 28  1  0  0  0  0
  3 29  1  0  0  0  0
  3 30  1  0  0  0  0
  4 31  1  0  0  0  0
  4 32  1  0  0  0  0
  5 33  1  0  0  0  0
  5 34  1  0  0  0  0
  6 35  1  0  0  0  0
  6 36  1  0  0  0  0
 10 37  1  0  0  0  0
 11 38  1  0  0  0  0
 14 39  1  0  0  0  0
 14 40  1  0  0  0  0
 15 41  1  6  0  0  0
 16 42  1  0  0  0  0
 16 43  1  0  0  0  0
 18 44  1  0  0  0  0
 18 45  1  0  0  0  0
 20 46  1  0  0  0  0
 20 47  1  0  0  0  0
 20 48  1  0  0  0  0
 21 49  1  0  0  0  0
 21 50  1  0  0  0  0
 21 51  1  0  0  0  0
 24 52  1  0  0  0  0
 24 53  1  0  0  0  0
M  END
$$$$
hcv002
  PyMOL2.2          3D                             0

 53 55  0  0  0  0  0  0  0  0999 V2000
   18.1187   -4.9576  -10.3260 C   0  0  0  0  0  0  0  0  0  0  0  0
   16.7368   -5.3539  -10.1289 N   0  0  0  0  0  0  0  0  0  0  0  0
   15.8923   -4.2059   -9.8488 C   0  0  0  0  0  0  0  0  0  0  0  0
   16.2466   -5.9574  -11.3540 C   0  0  0  0  0  0  0  0  0  0  0  0
   14.7880   -6.3742  -11.1424 C   0  0  0  0  0  0  0  0  0  0  0  0
   14.3366   -6.9903  -12.4399 C   0  0  0  0  0  0  0  0  0  0  0  0
   13.0152   -7.3886  -12.3541 O   0  0  0  0  0  0  0  0  0  0  0  0
   11.9360   -6.5665  -12.2122 C   0  0  0  0  0  0  0  0  0  0  0  0
   10.6718   -7.1826  -12.0957 C   0  0  0  0  0  0  0  0  0  0  0  0
    9.5301   -6.4347  -11.9531 C   0  0  0  0  0  0  0  0  0  0  0  0
    9.5349   -5.0597  -11.9144 C   0  0  0  0  0  0  0  0  0  0  0  0
   10.7565   -4.4396  -12.0271 C   0  0  0  0  0  0  0  0  0  0  0  0
   11.9226   -5.1994  -12.1732 C   0  0  0  0  0  0  0  0  0  0  0  0
    8.2656   -4.6439  -11.7674 N   0  0  0  0  0  0  0  0  0  0  0  0
    7.4962   -5.7433  -11.7169 C   0  0  0  0  0  0  0  0  0  0  0  0
    6.0701   -5.9251  -11.5707 N   0  0  0  0  0  0  0  0  0  0  0  0
    5.4783   -7.2354  -11.3907 C   0  0  0  0  0  0  0  0  0  0  0  0
    6.5125   -8.1487  -10.8292 C   0  0  0  0  0  0  0  0  0  0  0  0
    5.9950   -9.5291  -10.5206 C   0  0  0  0  0  0  0  0  0  0  0  0
    7.0691  -10.3406   -9.9810 N   0  0  0  0  0  0  0  0  0  0  0  0
    6.4984  -11.6662   -9.7040 C   0  0  0  0  0  0  0  0  0  0  0  0
    7.6181   -9.7902   -8.7681 C   0  0  0  0  0  0  0  0  0  0  0  0
    7.6696   -8.1853  -11.8049 C   0  0  0  0  0  0  0  0  0  0  0  0
    8.2404   -6.8540  -11.8278 N   0  0  0  0  0  0  0  0  0  0  0  0
   18.5712   -5.7283  -10.9916 H   0  0  0  0  0  0  0  0  0  0  0  0
   18.1801   -3.9633  -10.7823 H   0  0  0  0  0  0  0  0  0  0  0  0
   18.6968   -5.0328   -9.3631 H   0  0  0  0  0  0  0  0  0  0  0  0
   15.4624   -3.8299  -10.8048 H   0  0  0  0  0  0  0  0  0  0  0  0
   16.4562   -3.3852   -9.3663 H   0  0  0  0  0  0  0  0  0  0  0  0
   15.0239   -4.4845   -9.2104 H   0  0  0  0  0  0  0  0  0  0  0  0
   16.8334   -6.8337  -11.6686 H   0  0  0  0  0  0  0  0  0  0  0  0
   16.2285   -5.2076  -12.1724 H   0  0  0  0  0  0  0  0  0  0  0  0
   14.2148   -5.5395  -10.7781 H   0  0  0  0  0  0  0  0  0  0  0  0
   14.7630   -7.1629  -10.3420 H   0  0  0  0  0  0  0  0  0  0  0  0
   14.4958   -6.1825  -13.2156 H   0  0  0  0  0  0  0  0  0  0  0  0
   15.0213   -7.8382  -12.6964 H   0  0  0  0  0  0  0  0  0  0  0  0
   10.6277   -8.2822  -12.1224 H   0  0  0  0  0  0  0  0  0  0  0  0
   10.7949   -3.3663  -12.0005 H   0  0  0  0  0  0  0  0  0  0  0  0
   12.8611   -4.6749  -12.2908 H   0  0  0  0  0  0  0  0  0  0  0  0
    5.4873   -5.0517  -11.6026 H   0  0  0  0  0  0  0  0  0  0  0  0
    5.2035   -7.5978  -12.4034 H   0  0  0  0  0  0  0  0  0  0  0  0
    4.5530   -7.1808  -10.7823 H   0  0  0  0  0  0  0  0  0  0  0  0
    6.9071   -7.6885   -9.8905 H   0  0  0  0  0  0  0  0  0  0  0  0
    5.0842   -9.5331   -9.9277 H   0  0  0  0  0  0  0  0  0  0  0  0
    5.7390   -9.9950  -11.5162 H   0  0  0  0  0  0  0  0  0  0  0  0
    5.4123  -11.5399   -9.5017 H   0  0  0  0  0  0  0  0  0  0  0  0
    6.6950  -12.3075  -10.5902 H   0  0  0  0  0  0  0  0  0  0  0  0
    7.0138  -12.0451   -8.7908 H   0  0  0  0  0  0  0  0  0  0  0  0
    8.6331   -9.3354   -8.9274 H   0  0  0  0  0  0  0  0  0  0  0  0
    6.9406   -9.0896   -8.2518 H   0  0  0  0  0  0  0  0  0  0  0  0
    7.7884  -10.6340   -8.0635 H   0  0  0  0  0  0  0  0  0  0  0  0
    7.3434   -8.4185  -12.8338 H   0  0  0  0  0  0  0  0  0  0  0  0
    8.4307   -8.9432  -11.4852 H   0  0  0  0  0  0  0  0  0  0  0  0
  1  2  1  0  0  0  0
  2  3  1  0  0  0  0
  2  4  1  0  0  0  0
  4  5  1  0  0  0  0
  5  6  1  0  0  0  0
  6  7  1  0  0  0  0
  7  8  1  0  0  0  0
  8  9  2  0  0  0  0
  9 10  1  0  0  0  0
 10 11  2  0  0  0  0
 11 12  1  0  0  0  0
 12 13  2  0  0  0  0
 11 14  1  0  0  0  0
 14 15  2  0  0  0  0
 15 16  1  0  0  0  0
 16 17  1  0  0  0  0
 17 18  1  0  0  0  0
 18 19  1  0  0  0  0
 19 20  1  0  0  0  0
 20 21  1  0  0  0  0
 20 22  1  0  0  0  0
 18 23  1  0  0  0  0
 23 24  1  0  0  0  0
  8 13  1  0  0  0  0
 10 24  1  0  0  0  0
 15 24  1  0  0  0  0
  1 25  1  0  0  0  0
  1 26  1  0  0  0  0
  1 27  1  0  0  0  0
  3 28  1  0  0  0  0
  3 29  1  0  0  0  0
  3 30  1  0  0  0  0
  4 31  1  0  0  0  0
  4 32  1  0  0  0  0
  5 33  1  0  0  0  0
  5 34  1  0  0  0  0
  6 35  1  0  0  0  0
  6 36  1  0  0  0  0
  9 37  1  0  0  0  0
 12 38  1  0  0  0  0
 13 39  1  0  0  0  0
 16 40  1  0  0  0  0
 17 41  1  0  0  0  0
 17 42  1  0  0  0  0
 18 43  1  0  0  0  0
 19 44  1  0  0  0  0
 19 45  1  0  0  0  0
 21 46  1  0  0  0  0
 21 47  1  0  0  0  0
 21 48  1  0  0  0  0
 22 49  1  0  0  0  0
 22 50  1  0  0  0  0
 22 51  1  0  0  0  0
 23 52  1  0  0  0  0
 23 53  1  0  0  0  0
M  END
$$$$
hcv003_2ku0
  PyMOL2.2          3D                             0

 50 52  0  0  1  0  0  0  0  0999 V2000
    4.5290   -7.5160   -8.9965 C   0  0  0  0  0  0  0  0  0  0  0  0
    5.4021   -8.2540   -9.9214 N   0  0  0  0  0  0  0  0  0  0  0  0
    4.8159   -9.4957  -10.2843 C   0  0  0  0  0  0  0  0  0  0  0  0
    6.7484   -8.2655   -9.4656 C   0  0  0  0  0  0  0  0  0  0  0  0
    7.6566   -8.9402  -10.4419 C   0  0  0  0  0  0  0  0  0  0  0  0
    7.6901   -8.2919  -11.8069 C   0  0  0  0  0  0  0  0  0  0  0  0
    8.1522   -6.9414  -11.8157 N   0  0  0  0  0  0  0  0  0  0  0  0
    9.4554   -6.5715  -11.9490 C   0  0  0  0  0  0  0  0  0  0  0  0
    9.5482   -5.1963  -11.9187 C   0  0  0  0  0  0  0  0  0  0  0  0
   10.7403   -4.5027  -12.0297 C   0  0  0  0  0  0  0  0  0  0  0  0
   11.8959   -5.1911  -12.1778 C   0  0  0  0  0  0  0  0  0  0  0  0
   11.8479   -6.5986  -12.2144 C   0  0  0  0  0  0  0  0  0  0  0  0
   10.6537   -7.2757  -12.1027 C   0  0  0  0  0  0  0  0  0  0  0  0
   10.9255   -8.7106  -12.1846 C   0  0  0  0  0  0  0  0  0  0  0  0
   12.4104   -8.7840  -12.4208 C   0  0  2  0  0  0  0  0  0  0  0  0
   12.8942   -7.4887  -12.3557 O   0  0  0  0  0  0  0  0  0  0  0  0
   12.7327   -9.3336  -13.8251 C   0  0  0  0  0  0  0  0  0  0  0  0
   14.1524   -9.3016  -13.9829 N   0  0  0  0  0  0  0  0  0  0  0  0
   14.7309   -8.0001  -14.0596 C   0  0  0  0  0  0  0  0  0  0  0  0
   14.6984  -10.2798  -14.8666 C   0  0  0  0  0  0  0  0  0  0  0  0
    8.2728   -4.7356  -11.7643 N   0  0  0  0  0  0  0  0  0  0  0  0
    7.4514   -5.7987  -11.7050 C   0  0  0  0  0  0  0  0  0  0  0  0
    6.0497   -5.6425  -11.5536 N   0  0  0  0  0  0  0  0  0  0  0  0
    3.7764   -6.9377   -9.5432 H   0  0  0  0  0  0  0  0  0  0  0  0
    5.1567   -6.9366   -8.3032 H   0  0  0  0  0  0  0  0  0  0  0  0
    3.9712   -8.3135   -8.4364 H   0  0  0  0  0  0  0  0  0  0  0  0
    5.5707  -10.2171  -10.6113 H   0  0  0  0  0  0  0  0  0  0  0  0
    4.1683   -9.3111  -11.1715 H   0  0  0  0  0  0  0  0  0  0  0  0
    4.2013   -9.8934   -9.4441 H   0  0  0  0  0  0  0  0  0  0  0  0
    7.1180   -7.2558   -9.1767 H   0  0  0  0  0  0  0  0  0  0  0  0
    6.7451   -8.8349   -8.4867 H   0  0  0  0  0  0  0  0  0  0  0  0
    8.7004   -8.9061   -9.9803 H   0  0  0  0  0  0  0  0  0  0  0  0
    7.4890  -10.0202  -10.5829 H   0  0  0  0  0  0  0  0  0  0  0  0
    8.1634   -8.9770  -12.5078 H   0  0  0  0  0  0  0  0  0  0  0  0
    6.6014   -8.2671  -12.1293 H   0  0  0  0  0  0  0  0  0  0  0  0
   10.6975   -3.4076  -11.9925 H   0  0  0  0  0  0  0  0  0  0  0  0
   12.8237   -4.6608  -12.2648 H   0  0  0  0  0  0  0  0  0  0  0  0
   10.4595   -9.1981  -13.0706 H   0  0  0  0  0  0  0  0  0  0  0  0
   10.6867   -9.2636  -11.2475 H   0  0  0  0  0  0  0  0  0  0  0  0
   12.8756   -9.4568  -11.6593 H   0  0  0  0  0  0  0  0  0  0  0  0
   12.1768   -8.7658  -14.5795 H   0  0  0  0  0  0  0  0  0  0  0  0
   12.4107  -10.3971  -13.8952 H   0  0  0  0  0  0  0  0  0  0  0  0
   15.6069   -8.0236  -14.7432 H   0  0  0  0  0  0  0  0  0  0  0  0
   14.0136   -7.2075  -14.3883 H   0  0  0  0  0  0  0  0  0  0  0  0
   15.1234   -7.7251  -13.0603 H   0  0  0  0  0  0  0  0  0  0  0  0
   15.4969   -9.9311  -15.5240 H   0  0  0  0  0  0  0  0  0  0  0  0
   13.8494  -10.7400  -15.4355 H   0  0  0  0  0  0  0  0  0  0  0  0
   15.1064  -11.1272  -14.2421 H   0  0  0  0  0  0  0  0  0  0  0  0
    5.3443   -5.9429  -12.2542 H   0  0  0  0  0  0  0  0  0  0  0  0
    5.7030   -5.1966  -10.6803 H   0  0  0  0  0  0  0  0  0  0  0  0
  1  2  1  0  0  0  0
  2  3  1  0  0  0  0
  2  4  1  0  0  0  0
  4  5  1  0  0  0  0
  5  6  1  0  0  0  0
  6  7  1  0  0  0  0
  7  8  1  0  0  0  0
  8  9  2  0  0  0  0
  9 10  1  0  0  0  0
 10 11  2  0  0  0  0
 11 12  1  0  0  0  0
 12 13  2  0  0  0  0
 13 14  1  0  0  0  0
 14 15  1  0  0  0  0
 15 16  1  0  0  0  0
 15 17  1  0  0  0  0
 17 18  1  0  0  0  0
 18 19  1  0  0  0  0
 18 20  1  0  0  0  0
  9 21  1  0  0  0  0
 21 22  2  0  0  0  0
 22 23  1  0  0  0  0
  7 22  1  0  0  0  0
  8 13  1  0  0  0  0
 12 16  1  0  0  0  0
  1 24  1  0  0  0  0
  1 25  1  0  0  0  0
  1 26  1  0  0  0  0
  3 27  1  0  0  0  0
  3 28  1  0  0  0  0
  3 29  1  0  0  0  0
  4 30  1  0  0  0  0
  4 31  1  0  0  0  0
  5 32  1  0  0  0  0
  5 33  1  0  0  0  0
  6 34  1  0  0  0  0
  6 35  1  0  0  0  0
 10 36  1  0  0  0  0
 11 37  1  0  0  0  0
 14 38  1  0  0  0  0
 14 39  1  0  0  0  0
 15 40  1  1  0  0  0
 17 41  1  0  0  0  0
 17 42  1  0  0  0  0
 19 43  1  0  0  0  0
 19 44  1  0  0  0  0
 19 45  1  0  0  0  0
 20 46  1  0  0  0  0
 20 47  1  0  0  0  0
 20 48  1  0  0  0  0
 23 49  1  0  0  0  0
 23 50  1  0  0  0  0
M  END
$$$$
hcv004
  PyMOL2.2          3D                             0

 52 53  0  0  0  0  0  0  0  0999 V2000
    5.7713  -10.6487  -12.2275 C   0  0  0  0  0  0  0  0  0  0  0  0
    6.0393  -10.6823  -10.8349 N   0  0  0  0  0  0  0  0  0  0  0  0
    4.9444  -10.2902  -10.0035 C   0  0  0  0  0  0  0  0  0  0  0  0
    7.3169  -10.3136  -10.3757 C   0  0  0  0  0  0  0  0  0  0  0  0
    7.7327   -8.8963  -10.4582 C   0  0  0  0  0  0  0  0  0  0  0  0
    7.7618   -8.2911  -11.8169 C   0  0  0  0  0  0  0  0  0  0  0  0
    8.2073   -6.9237  -11.8231 N   0  0  0  0  0  0  0  0  0  0  0  0
    9.5028   -6.5219  -11.9517 C   0  0  0  0  0  0  0  0  0  0  0  0
    9.5281   -5.1559  -11.9144 C   0  0  0  0  0  0  0  0  0  0  0  0
   10.7221   -4.4566  -12.0220 C   0  0  0  0  0  0  0  0  0  0  0  0
   11.8916   -5.1698  -12.1679 C   0  0  0  0  0  0  0  0  0  0  0  0
   11.9420   -6.5540  -12.2143 C   0  0  0  0  0  0  0  0  0  0  0  0
   10.6796   -7.1901  -12.0975 C   0  0  0  0  0  0  0  0  0  0  0  0
   13.0462   -7.2659  -12.3557 O   0  0  0  0  0  0  0  0  0  0  0  0
   14.3435   -7.3858  -12.5150 C   0  0  0  0  0  0  0  0  0  0  0  0
   15.0510   -6.8964  -13.7459 C   0  0  0  0  0  0  0  0  0  0  0  0
   14.8715   -5.4383  -13.9420 C   0  0  0  0  0  0  0  0  0  0  0  0
   15.6034   -4.9590  -15.1321 N   0  0  0  0  0  0  0  0  0  0  0  0
   17.0336   -5.0505  -14.9086 C   0  0  0  0  0  0  0  0  0  0  0  0
   15.2559   -3.5334  -15.2350 C   0  0  0  0  0  0  0  0  0  0  0  0
    8.2763   -4.7235  -11.7661 N   0  0  0  0  0  0  0  0  0  0  0  0
    7.4798   -5.8187  -11.7118 C   0  0  0  0  0  0  0  0  0  0  0  0
    6.0637   -5.7054  -11.5550 N   0  0  0  0  0  0  0  0  0  0  0  0
    5.2531  -11.6172  -12.5431 H   0  0  0  0  0  0  0  0  0  0  0  0
    5.0196   -9.8718  -12.4673 H   0  0  0  0  0  0  0  0  0  0  0  0
    6.6253  -10.5274  -12.8957 H   0  0  0  0  0  0  0  0  0  0  0  0
    5.3005  -10.2194   -8.9523 H   0  0  0  0  0  0  0  0  0  0  0  0
    4.1864  -11.1082  -10.0197 H   0  0  0  0  0  0  0  0  0  0  0  0
    4.4296   -9.3702  -10.3433 H   0  0  0  0  0  0  0  0  0  0  0  0
    7.3768  -10.6497   -9.2894 H   0  0  0  0  0  0  0  0  0  0  0  0
    8.0582  -11.0127  -10.8679 H   0  0  0  0  0  0  0  0  0  0  0  0
    8.7805   -8.8006  -10.0384 H   0  0  0  0  0  0  0  0  0  0  0  0
    7.1195   -8.3100   -9.7326 H   0  0  0  0  0  0  0  0  0  0  0  0
    8.3857   -8.8884  -12.5068 H   0  0  0  0  0  0  0  0  0  0  0  0
    6.7322   -8.2664  -12.2931 H   0  0  0  0  0  0  0  0  0  0  0  0
   10.7139   -3.3731  -11.9883 H   0  0  0  0  0  0  0  0  0  0  0  0
   12.7964   -4.5888  -12.2341 H   0  0  0  0  0  0  0  0  0  0  0  0
   10.6515   -8.2670  -12.1248 H   0  0  0  0  0  0  0  0  0  0  0  0
   14.8989   -6.8506  -11.6448 H   0  0  0  0  0  0  0  0  0  0  0  0
   14.7383   -8.4634  -12.3100 H   0  0  0  0  0  0  0  0  0  0  0  0
   16.1299   -7.1696  -13.6152 H   0  0  0  0  0  0  0  0  0  0  0  0
   14.6314   -7.4251  -14.6356 H   0  0  0  0  0  0  0  0  0  0  0  0
   15.1476   -4.8616  -13.0657 H   0  0  0  0  0  0  0  0  0  0  0  0
   13.7901   -5.2984  -14.2656 H   0  0  0  0  0  0  0  0  0  0  0  0
   17.3188   -5.1062  -13.8582 H   0  0  0  0  0  0  0  0  0  0  0  0
   17.3865   -5.9317  -15.5043 H   0  0  0  0  0  0  0  0  0  0  0  0
   17.5021   -4.1642  -15.3761 H   0  0  0  0  0  0  0  0  0  0  0  0
   15.9592   -2.9983  -15.8863 H   0  0  0  0  0  0  0  0  0  0  0  0
   15.2491   -3.1329  -14.1881 H   0  0  0  0  0  0  0  0  0  0  0  0
   14.2027   -3.5021  -15.5901 H   0  0  0  0  0  0  0  0  0  0  0  0
    5.6897   -5.6567  -10.5825 H   0  0  0  0  0  0  0  0  0  0  0  0
    5.4794   -5.6772  -12.3941 H   0  0  0  0  0  0  0  0  0  0  0  0
  1  2  1  0  0  0  0
  2  3  1  0  0  0  0
  2  4  1  0  0  0  0
  4  5  1  0  0  0  0
  5  6  1  0  0  0  0
  6  7  1  0  0  0  0
  7  8  1  0  0  0  0
  8  9  2  0  0  0  0
  9 10  1  0  0  0  0
 10 11  2  0  0  0  0
 11 12  1  0  0  0  0
 12 13  2  0  0  0  0
 12 14  1  0  0  0  0
 14 15  1  0  0  0  0
 15 16  1  0  0  0  0
 16 17  1  0  0  0  0
 17 18  1  0  0  0  0
 18 19  1  0  0  0  0
 18 20  1  0  0  0  0
  9 21  1  0  0  0  0
 21 22  2  0  0  0  0
 22 23  1  0  0  0  0
  7 22  1  0  0  0  0
  8 13  1  0  0  0  0
  1 24  1  0  0  0  0
  1 25  1  0  0  0  0
  1 26  1  0  0  0  0
  3 27  1  0  0  0  0
  3 28  1  0  0  0  0
  3 29  1  0  0  0  0
  4 30  1  0  0  0  0
  4 31  1  0  0  0  0
  5 32  1  0  0  0  0
  5 33  1  0  0  0  0
  6 34  1  0  0  0  0
  6 35  1  0  0  0  0
 10 36  1  0  0  0  0
 11 37  1  0  0  0  0
 13 38  1  0  0  0  0
 15 39  1  0  0  0  0
 15 40  1  0  0  0  0
 16 41  1  0  0  0  0
 16 42  1  0  0  0  0
 17 43  1  0  0  0  0
 17 44  1  0  0  0  0
 19 45  1  0  0  0  0
 19 46  1  0  0  0  0
 19 47  1  0  0  0  0
 20 48  1  0  0  0  0
 20 49  1  0  0  0  0
 20 50  1  0  0  0  0
 23 51  1  0  0  0  0
 23 52  1  0  0  0  0
M  END
$$$$
hcv005
  PyMOL2.2          3D                             0

 53 55  0  0  0  0  0  0  0  0999 V2000
    5.0462  -11.7610  -11.0740 C   0  0  0  0  0  0  0  0  0  0  0  0
    5.5558  -10.4201  -11.5134 N   0  0  0  0  0  0  0  0  0  0  0  0
    5.5784  -10.5882  -12.9706 C   0  0  0  0  0  0  0  0  0  0  0  0
    6.8849  -10.3312  -10.9483 C   0  0  0  0  0  0  0  0  0  0  0  0
    7.5003   -8.9743  -10.9079 C   0  0  0  0  0  0  0  0  0  0  0  0
    7.7139   -8.2628  -12.1950 C   0  0  0  0  0  0  0  0  0  0  0  0
    8.2936   -6.9443  -12.0019 N   0  0  0  0  0  0  0  0  0  0  0  0
    9.5596   -6.5665  -12.0378 C   0  0  0  0  0  0  0  0  0  0  0  0
    9.5587   -5.1824  -11.7622 C   0  0  0  0  0  0  0  0  0  0  0  0
   10.7511   -4.4748  -11.7438 C   0  0  0  0  0  0  0  0  0  0  0  0
   11.9194   -5.1240  -11.9946 C   0  0  0  0  0  0  0  0  0  0  0  0
   11.9245   -6.5018  -12.2706 C   0  0  0  0  0  0  0  0  0  0  0  0
   10.7504   -7.2160  -12.2892 C   0  0  0  0  0  0  0  0  0  0  0  0
   10.7663   -8.6837  -12.5387 C   0  0  0  0  0  0  0  0  0  0  0  0
   12.0606   -9.1349  -11.7908 C   0  0  0  0  0  0  0  0  0  0  0  0
   13.2539   -8.5403  -12.4336 C   0  0  0  0  0  0  0  0  0  0  0  0
   13.1254   -7.1233  -12.5260 O   0  0  0  0  0  0  0  0  0  0  0  0
   12.0342  -10.5792  -11.5996 C   0  0  0  0  0  0  0  0  0  0  0  0
   11.9636  -11.4359  -12.7547 N   0  0  0  0  0  0  0  0  0  0  0  0
   11.8036  -12.8182  -12.2146 C   0  0  0  0  0  0  0  0  0  0  0  0
   13.2431  -11.5036  -13.4800 C   0  0  0  0  0  0  0  0  0  0  0  0
    8.2914   -4.7704  -11.5678 N   0  0  0  0  0  0  0  0  0  0  0  0
    7.5277   -5.8391  -11.7133 C   0  0  0  0  0  0  0  0  0  0  0  0
    6.1236   -5.8815  -11.5868 N   0  0  0  0  0  0  0  0  0  0  0  0
    5.8656  -12.4660  -11.2835 H   0  0  0  0  0  0  0  0  0  0  0  0
    4.8269  -11.7562  -10.0069 H   0  0  0  0  0  0  0  0  0  0  0  0
    4.1826  -12.0380  -11.7107 H   0  0  0  0  0  0  0  0  0  0  0  0
    5.4717   -9.6940  -13.5561 H   0  0  0  0  0  0  0  0  0  0  0  0
    6.4671  -11.1868  -13.2027 H   0  0  0  0  0  0  0  0  0  0  0  0
    4.7036  -11.2477  -13.2906 H   0  0  0  0  0  0  0  0  0  0  0  0
    7.5632  -11.0522  -11.5157 H   0  0  0  0  0  0  0  0  0  0  0  0
    6.8383  -10.8049   -9.9316 H   0  0  0  0  0  0  0  0  0  0  0  0
    6.8422   -8.3500  -10.2356 H   0  0  0  0  0  0  0  0  0  0  0  0
    8.4576   -9.0557  -10.2905 H   0  0  0  0  0  0  0  0  0  0  0  0
    8.1031   -8.8284  -13.0346 H   0  0  0  0  0  0  0  0  0  0  0  0
    6.6457   -8.0285  -12.5562 H   0  0  0  0  0  0  0  0  0  0  0  0
   10.7248   -3.4122  -11.5274 H   0  0  0  0  0  0  0  0  0  0  0  0
   12.8939   -4.6172  -11.9939 H   0  0  0  0  0  0  0  0  0  0  0  0
   10.9735   -8.9342  -13.5820 H   0  0  0  0  0  0  0  0  0  0  0  0
   10.0134   -9.2681  -12.0191 H   0  0  0  0  0  0  0  0  0  0  0  0
   11.9032   -8.6648  -10.7533 H   0  0  0  0  0  0  0  0  0  0  0  0
   13.5032   -8.9346  -13.4381 H   0  0  0  0  0  0  0  0  0  0  0  0
   14.1377   -8.7191  -11.7881 H   0  0  0  0  0  0  0  0  0  0  0  0
   11.2102  -10.8780  -10.8730 H   0  0  0  0  0  0  0  0  0  0  0  0
   12.9703  -10.9148  -11.0543 H   0  0  0  0  0  0  0  0  0  0  0  0
   12.1899  -13.5088  -12.9793 H   0  0  0  0  0  0  0  0  0  0  0  0
   12.4199  -12.8421  -11.2968 H   0  0  0  0  0  0  0  0  0  0  0  0
   10.7331  -12.9856  -12.0145 H   0  0  0  0  0  0  0  0  0  0  0  0
   13.2016  -11.0216  -14.4639 H   0  0  0  0  0  0  0  0  0  0  0  0
   14.0124  -11.1203  -12.7860 H   0  0  0  0  0  0  0  0  0  0  0  0
   13.5412  -12.5759  -13.6689 H   0  0  0  0  0  0  0  0  0  0  0  0
    5.6841   -6.2764  -10.7252 H   0  0  0  0  0  0  0  0  0  0  0  0
    5.4859   -5.5379  -12.3154 H   0  0  0  0  0  0  0  0  0  0  0  0
  1  2  1  0  0  0  0
  2  3  1  0  0  0  0
  2  4  1  0  0  0  0
  4  5  1  0  0  0  0
  5  6  1  0  0  0  0
  6  7  1  0  0  0  0
  7  8  1  0  0  0  0
  8  9  2  0  0  0  0
  9 10  1  0  0  0  0
 10 11  2  0  0  0  0
 11 12  1  0  0  0  0
 12 13  2  0  0  0  0
 13 14  1  0  0  0  0
 14 15  1  0  0  0  0
 15 16  1  0  0  0  0
 16 17  1  0  0  0  0
 15 18  1  0  0  0  0
 18 19  1  0  0  0  0
 19 20  1  0  0  0  0
 19 21  1  0  0  0  0
  9 22  1  0  0  0  0
 22 23  2  0  0  0  0
 23 24  1  0  0  0  0
  7 23  1  0  0  0  0
  8 13  1  0  0  0  0
 12 17  1  0  0  0  0
  1 25  1  0  0  0  0
  1 26  1  0  0  0  0
  1 27  1  0  0  0  0
  3 28  1  0  0  0  0
  3 29  1  0  0  0  0
  3 30  1  0  0  0  0
  4 31  1  0  0  0  0
  4 32  1  0  0  0  0
  5 33  1  0  0  0  0
  5 34  1  0  0  0  0
  6 35  1  0  0  0  0
  6 36  1  0  0  0  0
 10 37  1  0  0  0  0
 11 38  1  0  0  0  0
 14 39  1  0  0  0  0
 14 40  1  0  0  0  0
 15 41  1  0  0  0  0
 16 42  1  0  0  0  0
 16 43  1  0  0  0  0
 18 44  1  0  0  0  0
 18 45  1  0  0  0  0
 20 46  1  0  0  0  0
 20 47  1  0  0  0  0
 20 48  1  0  0  0  0
 21 49  1  0  0  0  0
 21 50  1  0  0  0  0
 21 51  1  0  0  0  0
 24 52  1  0  0  0  0
 24 53  1  0  0  0  0
M  END
$$$$
hcv006
  PyMOL2.2          3D                             0

 54 57  0  0  0  0  0  0  0  0999 V2000
   13.7141  -12.1716  -11.5724 C   0  0  0  0  0  0  0  0  0  0  0  0
   13.0620  -10.9332  -12.0534 N   0  0  0  0  0  0  0  0  0  0  0  0
   11.8316  -11.4200  -12.6859 C   0  0  0  0  0  0  0  0  0  0  0  0
   12.6854  -10.1251  -10.9187 C   0  0  0  0  0  0  0  0  0  0  0  0
   12.3209   -8.7236  -11.2158 C   0  0  0  0  0  0  0  0  0  0  0  0
   11.1614   -8.5003  -12.1597 C   0  0  0  0  0  0  0  0  0  0  0  0
   10.8739   -7.0518  -12.1465 C   0  0  0  0  0  0  0  0  0  0  0  0
   12.0006   -6.2355  -12.2834 C   0  0  0  0  0  0  0  0  0  0  0  0
   11.9261   -4.8621  -12.2550 C   0  0  0  0  0  0  0  0  0  0  0  0
   10.6967   -4.2744  -12.0860 C   0  0  0  0  0  0  0  0  0  0  0  0
    9.5847   -5.0735  -11.9527 C   0  0  0  0  0  0  0  0  0  0  0  0
    9.6434   -6.4738  -11.9809 C   0  0  0  0  0  0  0  0  0  0  0  0
    8.3910   -6.9846  -11.8293 N   0  0  0  0  0  0  0  0  0  0  0  0
    7.9297   -8.3725  -11.8382 C   0  0  0  0  0  0  0  0  0  0  0  0
    6.4359   -8.3239  -12.1886 C   0  0  0  0  0  0  0  0  0  0  0  0
    5.7751   -7.4604  -11.1285 C   0  0  0  0  0  0  0  0  0  0  0  0
    6.1505   -6.1030  -11.4863 N   0  0  0  0  0  0  0  0  0  0  0  0
    7.5654   -5.9305  -11.7011 C   0  0  0  0  0  0  0  0  0  0  0  0
    8.2937   -4.7905  -11.7784 N   0  0  0  0  0  0  0  0  0  0  0  0
    5.7580   -9.6253  -12.2075 C   0  0  0  0  0  0  0  0  0  0  0  0
    6.2008  -10.6324  -13.1045 N   0  0  0  0  0  0  0  0  0  0  0  0
    5.9957  -10.3735  -14.4913 C   0  0  0  0  0  0  0  0  0  0  0  0
    5.3443  -11.8047  -12.8085 C   0  0  0  0  0  0  0  0  0  0  0  0
   13.2384   -6.8572  -12.4574 O   0  0  0  0  0  0  0  0  0  0  0  0
   13.5658   -8.0621  -11.8177 C   0  0  0  0  0  0  0  0  0  0  0  0
   13.5216  -12.3802  -10.5241 H   0  0  0  0  0  0  0  0  0  0  0  0
   14.8265  -12.0473  -11.7206 H   0  0  0  0  0  0  0  0  0  0  0  0
   13.4250  -13.0253  -12.2096 H   0  0  0  0  0  0  0  0  0  0  0  0
   11.0175  -11.4218  -11.9373 H   0  0  0  0  0  0  0  0  0  0  0  0
   11.6411  -10.9053  -13.6219 H   0  0  0  0  0  0  0  0  0  0  0  0
   12.0099  -12.5033  -12.9950 H   0  0  0  0  0  0  0  0  0  0  0  0
   13.6214  -10.0775  -10.2802 H   0  0  0  0  0  0  0  0  0  0  0  0
   11.9047  -10.6676  -10.3014 H   0  0  0  0  0  0  0  0  0  0  0  0
   12.1465   -8.1551  -10.2537 H   0  0  0  0  0  0  0  0  0  0  0  0
   11.6203   -8.6611  -13.1917 H   0  0  0  0  0  0  0  0  0  0  0  0
   10.3710   -9.1912  -12.0522 H   0  0  0  0  0  0  0  0  0  0  0  0
   12.8083   -4.2265  -12.3628 H   0  0  0  0  0  0  0  0  0  0  0  0
   10.6510   -3.1989  -12.0662 H   0  0  0  0  0  0  0  0  0  0  0  0
    7.9895   -8.8795  -10.8910 H   0  0  0  0  0  0  0  0  0  0  0  0
    8.3251   -8.9164  -12.7297 H   0  0  0  0  0  0  0  0  0  0  0  0
    6.3375   -7.7434  -13.1405 H   0  0  0  0  0  0  0  0  0  0  0  0
    4.6902   -7.6028  -11.0998 H   0  0  0  0  0  0  0  0  0  0  0  0
    6.2917   -7.6814  -10.1643 H   0  0  0  0  0  0  0  0  0  0  0  0
    5.4933   -5.3230  -11.5892 H   0  0  0  0  0  0  0  0  0  0  0  0
    4.6704   -9.4424  -12.3996 H   0  0  0  0  0  0  0  0  0  0  0  0
    5.8156  -10.0572  -11.1690 H   0  0  0  0  0  0  0  0  0  0  0  0
    5.0902  -10.8638  -14.9079 H   0  0  0  0  0  0  0  0  0  0  0  0
    6.8517  -10.7881  -15.0607 H   0  0  0  0  0  0  0  0  0  0  0  0
    5.9065   -9.3102  -14.7740 H   0  0  0  0  0  0  0  0  0  0  0  0
    4.3253  -11.3782  -12.5912 H   0  0  0  0  0  0  0  0  0  0  0  0
    5.3003  -12.4928  -13.6655 H   0  0  0  0  0  0  0  0  0  0  0  0
    5.6992  -12.2820  -11.8779 H   0  0  0  0  0  0  0  0  0  0  0  0
   14.0301   -8.7436  -12.5483 H   0  0  0  0  0  0  0  0  0  0  0  0
   14.2877   -7.8484  -10.9761 H   0  0  0  0  0  0  0  0  0  0  0  0
  1  2  1  0  0  0  0
  2  3  1  0  0  0  0
  2  4  1  0  0  0  0
  4  5  1  0  0  0  0
  5  6  1  0  0  0  0
  6  7  1  0  0  0  0
  7  8  2  0  0  0  0
  8  9  1  0  0  0  0
  9 10  2  0  0  0  0
 10 11  1  0  0  0  0
 11 12  2  0  0  0  0
 12 13  1  0  0  0  0
 13 14  1  0  0  0  0
 14 15  1  0  0  0  0
 15 16  1  0  0  0  0
 16 17  1  0  0  0  0
 17 18  1  0  0  0  0
 18 19  2  0  0  0  0
 15 20  1  0  0  0  0
 20 21  1  0  0  0  0
 21 22  1  0  0  0  0
 21 23  1  0  0  0  0
  8 24  1  0  0  0  0
 24 25  1  0  0  0  0
  5 25  1  0  0  0  0
  7 12  1  0  0  0  0
 11 19  1  0  0  0  0
 13 18  1  0  0  0  0
  1 26  1  0  0  0  0
  1 27  1  0  0  0  0
  1 28  1  0  0  0  0
  3 29  1  0  0  0  0
  3 30  1  0  0  0  0
  3 31  1  0  0  0  0
  4 32  1  0  0  0  0
  4 33  1  0  0  0  0
  5 34  1  0  0  0  0
  6 35  1  0  0  0  0
  6 36  1  0  0  0  0
  9 37  1  0  0  0  0
 10 38  1  0  0  0  0
 14 39  1  0  0  0  0
 14 40  1  0  0  0  0
 15 41  1  0  0  0  0
 16 42  1  0  0  0  0
 16 43  1  0  0  0  0
 17 44  1  0  0  0  0
 20 45  1  0  0  0  0
 20 46  1  0  0  0  0
 22 47  1  0  0  0  0
 22 48  1  0  0  0  0
 22 49  1  0  0  0  0
 23 50  1  0  0  0  0
 23 51  1  0  0  0  0
 23 52  1  0  0  0  0
 25 53  1  0  0  0  0
 25 54  1  0  0  0  0
M  END
$$$$
hcv007
  PyMOL2.2          3D                             0

 51 54  0  0  0  0  0  0  0  0999 V2000
   14.6505   -8.6700   -9.5962 C   0  0  0  0  0  0  0  0  0  0  0  0
   13.6554   -7.6442   -9.7173 N   0  0  0  0  0  0  0  0  0  0  0  0
   13.5461   -6.7776   -8.5828 C   0  0  0  0  0  0  0  0  0  0  0  0
   12.3897   -8.0988  -10.2078 C   0  0  0  0  0  0  0  0  0  0  0  0
   12.5250   -8.5252  -11.6757 C   0  0  0  0  0  0  0  0  0  0  0  0
   11.0853   -8.5991  -12.1903 C   0  0  0  0  0  0  0  0  0  0  0  0
   10.7113   -7.1746  -12.1106 C   0  0  0  0  0  0  0  0  0  0  0  0
   11.9129   -6.4629  -12.2297 C   0  0  0  0  0  0  0  0  0  0  0  0
   12.9627   -7.3741  -12.3744 O   0  0  0  0  0  0  0  0  0  0  0  0
   11.9602   -5.0791  -12.1982 C   0  0  0  0  0  0  0  0  0  0  0  0
   10.7774   -4.3991  -12.0442 C   0  0  0  0  0  0  0  0  0  0  0  0
    9.5877   -5.1107  -11.9263 C   0  0  0  0  0  0  0  0  0  0  0  0
    9.5494   -6.4862  -11.9588 C   0  0  0  0  0  0  0  0  0  0  0  0
    8.2860   -6.9115  -11.8246 N   0  0  0  0  0  0  0  0  0  0  0  0
    7.7102   -8.2026  -11.7905 C   0  0  0  0  0  0  0  0  0  0  0  0
    6.2617   -8.2343  -12.2160 C   0  0  0  0  0  0  0  0  0  0  0  0
    5.5210   -7.1780  -11.4076 C   0  0  0  0  0  0  0  0  0  0  0  0
    6.1236   -5.8851  -11.5457 N   0  0  0  0  0  0  0  0  0  0  0  0
    7.5299   -5.8121  -11.7076 C   0  0  0  0  0  0  0  0  0  0  0  0
    8.3153   -4.7107  -11.7687 N   0  0  0  0  0  0  0  0  0  0  0  0
    5.6348   -9.5634  -11.8823 C   0  0  0  0  0  0  0  0  0  0  0  0
    6.2434  -10.6944  -12.5026 N   0  0  0  0  0  0  0  0  0  0  0  0
    6.0635  -10.7568  -13.9348 C   0  0  0  0  0  0  0  0  0  0  0  0
    5.5563  -11.8787  -11.9647 C   0  0  0  0  0  0  0  0  0  0  0  0
   15.6493   -8.1549   -9.5061 H   0  0  0  0  0  0  0  0  0  0  0  0
   14.6879   -9.2064  -10.5680 H   0  0  0  0  0  0  0  0  0  0  0  0
   14.5036   -9.3314   -8.7355 H   0  0  0  0  0  0  0  0  0  0  0  0
   12.5690   -6.2208   -8.6841 H   0  0  0  0  0  0  0  0  0  0  0  0
   13.4856   -7.3143   -7.6156 H   0  0  0  0  0  0  0  0  0  0  0  0
   14.3859   -6.0533   -8.5850 H   0  0  0  0  0  0  0  0  0  0  0  0
   11.9649   -8.9345   -9.6131 H   0  0  0  0  0  0  0  0  0  0  0  0
   11.6656   -7.2622  -10.1158 H   0  0  0  0  0  0  0  0  0  0  0  0
   13.1002   -9.4204  -11.8197 H   0  0  0  0  0  0  0  0  0  0  0  0
   10.5648   -9.2434  -11.4704 H   0  0  0  0  0  0  0  0  0  0  0  0
   11.0454   -8.9354  -13.2325 H   0  0  0  0  0  0  0  0  0  0  0  0
   12.8603   -4.5023  -12.2857 H   0  0  0  0  0  0  0  0  0  0  0  0
   10.7763   -3.3274  -12.0144 H   0  0  0  0  0  0  0  0  0  0  0  0
    7.7319   -8.6192  -10.7421 H   0  0  0  0  0  0  0  0  0  0  0  0
    8.2174   -8.9538  -12.4276 H   0  0  0  0  0  0  0  0  0  0  0  0
    6.1973   -7.9712  -13.2832 H   0  0  0  0  0  0  0  0  0  0  0  0
    4.4614   -7.1247  -11.7492 H   0  0  0  0  0  0  0  0  0  0  0  0
    5.5345   -7.5190  -10.3540 H   0  0  0  0  0  0  0  0  0  0  0  0
    5.5549   -4.9899  -11.5302 H   0  0  0  0  0  0  0  0  0  0  0  0
    5.7384   -9.6975  -10.7795 H   0  0  0  0  0  0  0  0  0  0  0  0
    4.5283   -9.5217  -12.0578 H   0  0  0  0  0  0  0  0  0  0  0  0
    5.0178  -10.5883  -14.2418 H   0  0  0  0  0  0  0  0  0  0  0  0
    6.2943  -11.8218  -14.2290 H   0  0  0  0  0  0  0  0  0  0  0  0
    6.7955  -10.1402  -14.4970 H   0  0  0  0  0  0  0  0  0  0  0  0
    5.2137  -11.7135  -10.9307 H   0  0  0  0  0  0  0  0  0  0  0  0
    4.6318  -12.1026  -12.5533 H   0  0  0  0  0  0  0  0  0  0  0  0
    6.1963  -12.7812  -12.0339 H   0  0  0  0  0  0  0  0  0  0  0  0
  1  2  1  0  0  0  0
  2  3  1  0  0  0  0
  2  4  1  0  0  0  0
  4  5  1  0  0  0  0
  5  6  1  0  0  0  0
  6  7  1  0  0  0  0
  7  8  2  0  0  0  0
  8  9  1  0  0  0  0
  8 10  1  0  0  0  0
 10 11  2  0  0  0  0
 11 12  1  0  0  0  0
 12 13  2  0  0  0  0
 13 14  1  0  0  0  0
 14 15  1  0  0  0  0
 15 16  1  0  0  0  0
 16 17  1  0  0  0  0
 17 18  1  0  0  0  0
 18 19  1  0  0  0  0
 19 20  2  0  0  0  0
 16 21  1  0  0  0  0
 21 22  1  0  0  0  0
 22 23  1  0  0  0  0
 22 24  1  0  0  0  0
  5  9  1  0  0  0  0
  7 13  1  0  0  0  0
 12 20  1  0  0  0  0
 14 19  1  0  0  0  0
  1 25  1  0  0  0  0
  1 26  1  0  0  0  0
  1 27  1  0  0  0  0
  3 28  1  0  0  0  0
  3 29  1  0  0  0  0
  3 30  1  0  0  0  0
  4 31  1  0  0  0  0
  4 32  1  0  0  0  0
  5 33  1  0  0  0  0
  6 34  1  0  0  0  0
  6 35  1  0  0  0  0
 10 36  1  0  0  0  0
 11 37  1  0  0  0  0
 15 38  1  0  0  0  0
 15 39  1  0  0  0  0
 16 40  1  0  0  0  0
 17 41  1  0  0  0  0
 17 42  1  0  0  0  0
 18 43  1  0  0  0  0
 21 44  1  0  0  0  0
 21 45  1  0  0  0  0
 23 46  1  0  0  0  0
 23 47  1  0  0  0  0
 23 48  1  0  0  0  0
 24 49  1  0  0  0  0
 24 50  1  0  0  0  0
 24 51  1  0  0  0  0
M  END
$$$$
