gua001_3ski
  MOE2018           3D

 32 34  0  0  1  0  0  0  0  0999 V2000
   -8.6500    7.0770  -56.0190 C   0  0  0  0  0  0  0  0  0  0  0  0
   -9.3210    7.7530  -57.2060 C   0  0  1  0  0  0  0  0  0  0  0  0
   -8.6330    7.1300  -58.4140 C   0  0  2  0  0  0  0  0  0  0  0  0
   -8.3940    5.7940  -58.0170 O   0  0  0  0  0  0  0  0  0  0  0  0
   -8.2770    5.7100  -56.6100 C   0  0  1  0  0  0  0  0  0  0  0  0
   -6.9150    5.2140  -56.3290 N   0  0  0  0  0  0  0  0  0  0  0  0
   -5.7560    5.8970  -56.0540 C   0  0  0  0  0  0  0  0  0  0  0  0
   -4.7090    5.1340  -55.9390 N   0  0  0  0  0  0  0  0  0  0  0  0
   -5.2060    3.8500  -56.1380 C   0  0  0  0  0  0  0  0  0  0  0  0
   -6.5540    3.8880  -56.3800 C   0  0  0  0  0  0  0  0  0  0  0  0
   -7.3690    2.8230  -56.6360 N   0  0  0  0  0  0  0  0  0  0  0  0
   -6.7200    1.6660  -56.6100 C   0  0  0  0  0  0  0  0  0  0  0  0
   -5.4000    1.5170  -56.3780 N   0  0  0  0  0  0  0  0  0  0  0  0
   -4.5530    2.5760  -56.1390 C   0  0  0  0  0  0  0  0  0  0  0  0
   -3.3720    2.3380  -55.9500 O   0  0  0  0  0  0  0  0  0  0  0  0
   -7.4090    0.5840  -56.8320 N   0  0  0  0  0  0  0  0  0  0  0  0
   -7.3290    7.8610  -58.7450 C   0  0  0  0  0  0  0  0  0  0  0  0
   -6.5110    7.0640  -59.5680 O   0  0  0  0  0  0  0  0  0  0  0  0
  -10.6990    7.4640  -57.2000 O   0  0  0  0  0  0  0  0  0  0  0  0
   -9.3340    6.9730  -55.1760 H   0  0  0  0  0  0  0  0  0  0  0  0
   -7.7740    7.6480  -55.7160 H   0  0  0  0  0  0  0  0  0  0  0  0
   -9.1730    8.8350  -57.1760 H   0  0  0  0  0  0  0  0  0  0  0  0
   -9.2860    7.1600  -59.2880 H   0  0  0  0  0  0  0  0  0  0  0  0
   -8.9840    4.9570  -56.2510 H   0  0  0  0  0  0  0  0  0  0  0  0
   -5.6970    6.9720  -55.9680 H   0  0  0  0  0  0  0  0  0  0  0  0
   -4.9750    0.6150  -56.3820 H   0  0  0  0  0  0  0  0  0  0  0  0
   -6.9830   -0.3210  -56.8320 H   0  0  0  0  0  0  0  0  0  0  0  0
   -8.3870    0.7240  -57.0130 H   0  0  0  0  0  0  0  0  0  0  0  0
   -6.7850    8.0920  -57.8290 H   0  0  0  0  0  0  0  0  0  0  0  0
   -7.5570    8.7990  -59.2550 H   0  0  0  0  0  0  0  0  0  0  0  0
   -6.5530    6.1520  -59.2520 H   0  0  0  0  0  0  0  0  0  0  0  0
  -10.8230    6.5270  -57.3860 H   0  0  0  0  0  0  0  0  0  0  0  0
  1  2  1  0  0  0  0
  1  5  1  0  0  0  0
  1 20  1  0  0  0  0
  1 21  1  0  0  0  0
  2  3  1  0  0  0  0
  2 19  1  0  0  0  0
  2 22  1  0  0  0  0
  3  4  1  0  0  0  0
  3 17  1  0  0  0  0
  3 23  1  0  0  0  0
  4  5  1  0  0  0  0
  5  6  1  0  0  0  0
  5 24  1  0  0  0  0
  6  7  1  0  0  0  0
  6 10  1  0  0  0  0
  7  8  2  0  0  0  0
  7 25  1  0  0  0  0
  8  9  1  0  0  0  0
  9 10  2  0  0  0  0
  9 14  1  0  0  0  0
 10 11  1  0  0  0  0
 11 12  2  0  0  0  0
 12 13  1  0  0  0  0
 12 16  1  0  0  0  0
 13 14  1  0  0  0  0
 13 26  1  0  0  0  0
 14 15  2  0  0  0  0
 16 27  1  0  0  0  0
 16 28  1  0  0  0  0
 17 18  1  0  0  0  0
 17 29  1  0  0  0  0
 17 30  1  0  0  0  0
 18 31  1  0  0  0  0
 19 32  1  0  0  0  0
M  END
$$$$
gua002_3skz
  MOE2018           3D

 33 35  0  0  1  0  0  0  0  0999 V2000
   -5.4810    6.0590  -55.9000 C   0  0  0  0  0  0  0  0  0  0  0  0
   -4.4840    5.2270  -55.8820 N   0  0  0  0  0  0  0  0  0  0  0  0
   -5.0680    4.0010  -56.1740 C   0  0  0  0  0  0  0  0  0  0  0  0
   -6.4140    4.1400  -56.3750 C   0  0  0  0  0  0  0  0  0  0  0  0
   -6.6840    5.4780  -56.2150 N   0  0  0  0  0  0  0  0  0  0  0  0
   -8.0230    6.0800  -56.3640 C   0  0  1  0  0  0  0  0  0  0  0  0
   -8.0880    7.5940  -56.1820 C   0  0  1  0  0  0  0  0  0  0  0  0
   -7.8220    8.1200  -57.5680 C   0  0  1  0  0  0  0  0  0  0  0  0
   -8.3380    7.0260  -58.4830 C   0  0  2  0  0  0  0  0  0  0  0  0
   -8.4120    5.8370  -57.7150 O   0  0  0  0  0  0  0  0  0  0  0  0
   -7.3150    6.8940  -59.6100 C   0  0  0  0  0  0  0  0  0  0  0  0
   -7.6390    7.8020  -60.6350 O   0  0  0  0  0  0  0  0  0  0  0  0
   -8.3210    9.4240  -57.7530 O   0  0  0  0  0  0  0  0  0  0  0  0
   -9.3810    7.9290  -55.7410 O   0  0  0  0  0  0  0  0  0  0  0  0
   -7.2960    3.1450  -56.6830 N   0  0  0  0  0  0  0  0  0  0  0  0
   -6.7210    1.9530  -56.7580 C   0  0  0  0  0  0  0  0  0  0  0  0
   -5.4060    1.7080  -56.5750 N   0  0  0  0  0  0  0  0  0  0  0  0
   -4.4940    2.6960  -56.2780 C   0  0  0  0  0  0  0  0  0  0  0  0
   -3.3240    2.3910  -56.1230 O   0  0  0  0  0  0  0  0  0  0  0  0
   -7.4870    0.9340  -57.0280 N   0  0  0  0  0  0  0  0  0  0  0  0
   -5.3550    7.1130  -55.7030 H   0  0  0  0  0  0  0  0  0  0  0  0
   -8.7140    5.5880  -55.6770 H   0  0  0  0  0  0  0  0  0  0  0  0
   -7.3490    7.9630  -55.4700 H   0  0  0  0  0  0  0  0  0  0  0  0
   -6.7370    8.1830  -57.6560 H   0  0  0  0  0  0  0  0  0  0  0  0
   -9.3260    7.2760  -58.8710 H   0  0  0  0  0  0  0  0  0  0  0  0
   -7.3940    5.8810  -60.0110 H   0  0  0  0  0  0  0  0  0  0  0  0
   -6.2900    7.0350  -59.2640 H   0  0  0  0  0  0  0  0  0  0  0  0
   -7.1390    7.5790  -61.4280 H   0  0  0  0  0  0  0  0  0  0  0  0
   -8.2140    9.6440  -58.6870 H   0  0  0  0  0  0  0  0  0  0  0  0
   -9.5800    8.7870  -56.1420 H   0  0  0  0  0  0  0  0  0  0  0  0
   -5.0430    0.7830  -56.6470 H   0  0  0  0  0  0  0  0  0  0  0  0
   -8.4570    1.1580  -57.1630 H   0  0  0  0  0  0  0  0  0  0  0  0
   -7.1250    0.0050  -57.1020 H   0  0  0  0  0  0  0  0  0  0  0  0
  1  2  2  0  0  0  0
  1  5  1  0  0  0  0
  1 21  1  0  0  0  0
  2  3  1  0  0  0  0
  3  4  2  0  0  0  0
  3 18  1  0  0  0  0
  4  5  1  0  0  0  0
  4 15  1  0  0  0  0
  5  6  1  0  0  0  0
  6  7  1  0  0  0  0
  6 10  1  0  0  0  0
  6 22  1  0  0  0  0
  7  8  1  0  0  0  0
  7 14  1  0  0  0  0
  7 23  1  0  0  0  0
  8  9  1  0  0  0  0
  8 13  1  0  0  0  0
  8 24  1  0  0  0  0
  9 10  1  0  0  0  0
  9 11  1  0  0  0  0
  9 25  1  0  0  0  0
 11 12  1  0  0  0  0
 11 26  1  0  0  0  0
 11 27  1  0  0  0  0
 12 28  1  0  0  0  0
 13 29  1  0  0  0  0
 14 30  1  0  0  0  0
 15 16  2  0  0  0  0
 16 17  1  0  0  0  0
 16 20  1  0  0  0  0
 17 18  1  0  0  0  0
 17 31  1  0  0  0  0
 18 19  2  0  0  0  0
 20 32  1  0  0  0  0
 20 33  1  0  0  0  0
M  END
$$$$
gua003_3slm
  MOE2018           3D

 37 39  0  0  1  0  0  0  0  0999 V2000
   -8.5120    7.6440  -56.2210 C   0  0  0  0  0  0  0  0  0  0  0  0
   -9.0570    8.3780  -57.4320 C   0  0  1  0  0  0  0  0  0  0  0  0
   -8.5020    7.6140  -58.6360 C   0  0  2  0  0  0  0  0  0  0  0  0
   -8.0600    6.3540  -58.1930 O   0  0  0  0  0  0  0  0  0  0  0  0
   -8.1080    6.2750  -56.7840 C   0  0  1  0  0  0  0  0  0  0  0  0
   -6.7930    5.7930  -56.3200 N   0  0  0  0  0  0  0  0  0  0  0  0
   -5.6730    6.5110  -55.9780 C   0  0  0  0  0  0  0  0  0  0  0  0
   -4.6610    5.7760  -55.6310 N   0  0  0  0  0  0  0  0  0  0  0  0
   -5.1260    4.4770  -55.7780 C   0  0  0  0  0  0  0  0  0  0  0  0
   -6.4300    4.4730  -56.1970 C   0  0  0  0  0  0  0  0  0  0  0  0
   -7.1810    3.3640  -56.4620 N   0  0  0  0  0  0  0  0  0  0  0  0
   -6.5250    2.2230  -56.2690 C   0  0  0  0  0  0  0  0  0  0  0  0
   -5.2420    2.1290  -55.8580 N   0  0  0  0  0  0  0  0  0  0  0  0
   -4.4590    3.2270  -55.5910 C   0  0  0  0  0  0  0  0  0  0  0  0
   -3.3050    3.0480  -55.2340 O   0  0  0  0  0  0  0  0  0  0  0  0
   -7.1450    1.0950  -56.5030 N   0  0  0  0  0  0  0  0  0  0  0  0
   -7.3490    8.3240  -59.3540 C   0  0  0  0  0  0  0  0  0  0  0  0
   -6.6140    9.0970  -58.3690 O   0  0  0  0  0  0  0  0  0  0  0  0
   -6.0210   10.4480  -58.7520 P   0  0  0  0  0  0  0  0  0  0  0  0
   -5.0580   10.3200  -59.8280 O   0  0  0  0  0  0  0  0  0  0  0  0
   -7.1660   11.3420  -59.1600 O   0  0  0  0  0  0  0  0  0  0  0  0
   -5.4480   11.0320  -57.4840 O   0  0  0  0  0  0  0  0  0  0  0  0
  -10.4580    8.4050  -57.4130 O   0  0  0  0  0  0  0  0  0  0  0  0
   -7.6610    8.1920  -55.8260 H   0  0  0  0  0  0  0  0  0  0  0  0
   -9.2680    7.5240  -55.4450 H   0  0  0  0  0  0  0  0  0  0  0  0
   -8.7200    9.4150  -57.4290 H   0  0  0  0  0  0  0  0  0  0  0  0
   -9.3040    7.4590  -59.3600 H   0  0  0  0  0  0  0  0  0  0  0  0
   -8.8680    5.5410  -56.5090 H   0  0  0  0  0  0  0  0  0  0  0  0
   -5.6140    7.5890  -56.0120 H   0  0  0  0  0  0  0  0  0  0  0  0
   -4.7950    1.2470  -55.7460 H   0  0  0  0  0  0  0  0  0  0  0  0
   -8.0930    1.1800  -56.8290 H   0  0  0  0  0  0  0  0  0  0  0  0
   -6.7010    0.2050  -56.3860 H   0  0  0  0  0  0  0  0  0  0  0  0
   -6.6940    7.5860  -59.8210 H   0  0  0  0  0  0  0  0  0  0  0  0
   -7.7700    8.9710  -60.1260 H   0  0  0  0  0  0  0  0  0  0  0  0
   -6.8790   11.7450  -59.9910 H   0  0  0  0  0  0  0  0  0  0  0  0
   -6.1700   11.1250  -56.8580 H   0  0  0  0  0  0  0  0  0  0  0  0
  -10.7670    8.9660  -56.6960 H   0  0  0  0  0  0  0  0  0  0  0  0
  1  2  1  0  0  0  0
  1  5  1  0  0  0  0
  1 24  1  0  0  0  0
  1 25  1  0  0  0  0
  2  3  1  0  0  0  0
  2 23  1  0  0  0  0
  2 26  1  0  0  0  0
  3  4  1  0  0  0  0
  3 17  1  0  0  0  0
  3 27  1  0  0  0  0
  4  5  1  0  0  0  0
  5  6  1  0  0  0  0
  5 28  1  0  0  0  0
  6  7  1  0  0  0  0
  6 10  1  0  0  0  0
  7  8  2  0  0  0  0
  7 29  1  0  0  0  0
  8  9  1  0  0  0  0
  9 10  2  0  0  0  0
  9 14  1  0  0  0  0
 10 11  1  0  0  0  0
 11 12  2  0  0  0  0
 12 13  1  0  0  0  0
 12 16  1  0  0  0  0
 13 14  1  0  0  0  0
 13 30  1  0  0  0  0
 14 15  2  0  0  0  0
 16 31  1  0  0  0  0
 16 32  1  0  0  0  0
 17 18  1  0  0  0  0
 17 33  1  0  0  0  0
 17 34  1  0  0  0  0
 18 19  1  0  0  0  0
 19 20  2  0  0  0  0
 19 21  1  0  0  0  0
 19 22  1  0  0  0  0
 21 35  1  0  0  0  0
 22 36  1  0  0  0  0
 23 37  1  0  0  0  0
M  END
$$$$
gua004_3slq
  MOE2018           3D

 38 40  0  0  1  0  0  0  0  0999 V2000
   -5.4620    6.0910  -55.9640 C   0  0  0  0  0  0  0  0  0  0  0  0
   -4.4790    5.2580  -55.8320 N   0  0  0  0  0  0  0  0  0  0  0  0
   -5.0540    4.0150  -56.0630 C   0  0  0  0  0  0  0  0  0  0  0  0
   -6.3900    4.1500  -56.3270 C   0  0  0  0  0  0  0  0  0  0  0  0
   -6.6580    5.4960  -56.2880 N   0  0  0  0  0  0  0  0  0  0  0  0
   -7.9930    6.0960  -56.4950 C   0  0  1  0  0  0  0  0  0  0  0  0
   -7.9800    7.6290  -56.4150 C   0  0  1  0  0  0  0  0  0  0  0  0
   -7.7160    8.0080  -57.8600 C   0  0  1  0  0  0  0  0  0  0  0  0
   -8.5390    6.9590  -58.5930 C   0  0  2  0  0  0  0  0  0  0  0  0
   -8.4520    5.7820  -57.8110 O   0  0  0  0  0  0  0  0  0  0  0  0
   -8.0480    6.6940  -60.0140 C   0  0  0  0  0  0  0  0  0  0  0  0
   -8.1520    7.9510  -60.7110 O   0  0  0  0  0  0  0  0  0  0  0  0
   -7.7860    8.0820  -62.1830 P   0  0  0  0  0  0  0  0  0  0  0  0
   -8.7990    7.4750  -63.0270 O   0  0  0  0  0  0  0  0  0  0  0  0
   -6.4500    7.4180  -62.4030 O   0  0  0  0  0  0  0  0  0  0  0  0
   -7.6050    9.5570  -62.4380 O   0  0  0  0  0  0  0  0  0  0  0  0
   -8.1070    9.3430  -58.0990 O   0  0  0  0  0  0  0  0  0  0  0  0
   -9.2300    8.1410  -55.9560 O   0  0  0  0  0  0  0  0  0  0  0  0
   -7.2580    3.1340  -56.5940 N   0  0  0  0  0  0  0  0  0  0  0  0
   -6.6860    1.9340  -56.5880 C   0  0  0  0  0  0  0  0  0  0  0  0
   -5.3780    1.7020  -56.3440 N   0  0  0  0  0  0  0  0  0  0  0  0
   -4.4800    2.7050  -56.0630 C   0  0  0  0  0  0  0  0  0  0  0  0
   -3.3130    2.4090  -55.8540 O   0  0  0  0  0  0  0  0  0  0  0  0
   -7.4320    0.8910  -56.8440 N   0  0  0  0  0  0  0  0  0  0  0  0
   -5.3150    7.1550  -55.8450 H   0  0  0  0  0  0  0  0  0  0  0  0
   -8.6780    5.6840  -55.7540 H   0  0  0  0  0  0  0  0  0  0  0  0
   -7.1880    8.0060  -55.7710 H   0  0  0  0  0  0  0  0  0  0  0  0
   -6.6580    7.8750  -58.0980 H   0  0  0  0  0  0  0  0  0  0  0  0
   -9.5790    7.2880  -58.6290 H   0  0  0  0  0  0  0  0  0  0  0  0
   -8.6880    5.9440  -60.4820 H   0  0  0  0  0  0  0  0  0  0  0  0
   -7.0140    6.3450  -59.9880 H   0  0  0  0  0  0  0  0  0  0  0  0
   -6.5770    6.8690  -63.1880 H   0  0  0  0  0  0  0  0  0  0  0  0
   -7.1010    9.9010  -61.6930 H   0  0  0  0  0  0  0  0  0  0  0  0
   -8.9270    9.4770  -57.6040 H   0  0  0  0  0  0  0  0  0  0  0  0
   -9.2890    8.0840  -54.9960 H   0  0  0  0  0  0  0  0  0  0  0  0
   -5.0020    0.7810  -56.3620 H   0  0  0  0  0  0  0  0  0  0  0  0
   -8.4010    1.0840  -57.0340 H   0  0  0  0  0  0  0  0  0  0  0  0
   -7.0620   -0.0400  -56.8620 H   0  0  0  0  0  0  0  0  0  0  0  0
  1  2  2  0  0  0  0
  1  5  1  0  0  0  0
  1 25  1  0  0  0  0
  2  3  1  0  0  0  0
  3  4  2  0  0  0  0
  3 22  1  0  0  0  0
  4  5  1  0  0  0  0
  4 19  1  0  0  0  0
  5  6  1  0  0  0  0
  6  7  1  0  0  0  0
  6 10  1  0  0  0  0
  6 26  1  0  0  0  0
  7  8  1  0  0  0  0
  7 18  1  0  0  0  0
  7 27  1  0  0  0  0
  8  9  1  0  0  0  0
  8 17  1  0  0  0  0
  8 28  1  0  0  0  0
  9 10  1  0  0  0  0
  9 11  1  0  0  0  0
  9 29  1  0  0  0  0
 11 12  1  0  0  0  0
 11 30  1  0  0  0  0
 11 31  1  0  0  0  0
 12 13  1  0  0  0  0
 13 14  2  0  0  0  0
 13 15  1  0  0  0  0
 13 16  1  0  0  0  0
 15 32  1  0  0  0  0
 16 33  1  0  0  0  0
 17 34  1  0  0  0  0
 18 35  1  0  0  0  0
 19 20  2  0  0  0  0
 20 21  1  0  0  0  0
 20 24  1  0  0  0  0
 21 22  1  0  0  0  0
 21 36  1  0  0  0  0
 22 23  2  0  0  0  0
 24 37  1  0  0  0  0
 24 38  1  0  0  0  0
M  END
$$$$
gua005_3rkf
  MOE2018           3D

 16 17  0  0  0  0  0  0  0  0999 V2000
   -5.7860    6.0330  -56.1790 C   0  0  0  0  0  0  0  0  0  0  0  0
   -6.8750    5.2620  -56.4480 N   0  0  0  0  0  0  0  0  0  0  0  0
   -6.5090    3.9650  -56.5090 C   0  0  0  0  0  0  0  0  0  0  0  0
   -5.1510    3.9520  -56.2670 C   0  0  0  0  0  0  0  0  0  0  0  0
   -4.7170    5.2250  -56.0660 N   0  0  0  0  0  0  0  0  0  0  0  0
   -4.5300    2.7150  -56.2760 C   0  0  0  0  0  0  0  0  0  0  0  0
   -2.9140    2.7160  -55.9870 S   0  0  0  0  0  0  0  0  0  0  0  0
   -5.2130    1.5790  -56.5090 N   0  0  0  0  0  0  0  0  0  0  0  0
   -6.5370    1.6110  -56.7420 C   0  0  0  0  0  0  0  0  0  0  0  0
   -7.1440    2.7990  -56.7360 N   0  0  0  0  0  0  0  0  0  0  0  0
   -7.3000    0.4370  -56.9920 N   0  0  0  0  0  0  0  0  0  0  0  0
   -5.7460    7.1140  -56.0670 H   0  0  0  0  0  0  0  0  0  0  0  0
   -3.7180    5.4820  -55.8630 H   0  0  0  0  0  0  0  0  0  0  0  0
   -8.1660    2.8410  -56.9140 H   0  0  0  0  0  0  0  0  0  0  0  0
   -7.0360   -0.4660  -56.5430 H   0  0  0  0  0  0  0  0  0  0  0  0
   -8.1360    0.4150  -57.6160 H   0  0  0  0  0  0  0  0  0  0  0  0
  1  2  2  0  0  0  0
  1  5  1  0  0  0  0
  1 12  1  0  0  0  0
  2  3  1  0  0  0  0
  3  4  2  0  0  0  0
  3 10  1  0  0  0  0
  4  5  1  0  0  0  0
  4  6  1  0  0  0  0
  5 13  1  0  0  0  0
  6  7  2  0  0  0  0
  6  8  1  0  0  0  0
  8  9  2  0  0  0  0
  9 10  1  0  0  0  0
  9 11  1  0  0  0  0
 10 14  1  0  0  0  0
 11 15  1  0  0  0  0
 11 16  1  0  0  0  0
M  END
$$$$
gua006_6uc7
  MOE2018           3D

 21 22  0  0  0  0  0  0  0  0999 V2000
   -7.8410   -1.9710  -57.3230 C   0  0  0  0  0  0  0  0  0  0  0  0
   -6.8570   -0.8760  -57.0410 C   0  0  0  0  0  0  0  0  0  0  0  0
   -5.6700   -1.2350  -56.8630 O   0  0  0  0  0  0  0  0  0  0  0  0
   -7.3000    0.4400  -56.9920 N   0  0  0  0  0  0  0  0  0  0  0  0
   -6.5100    1.5940  -56.7390 C   0  0  0  0  0  0  0  0  0  0  0  0
   -7.1200    2.8220  -56.7290 N   0  0  0  0  0  0  0  0  0  0  0  0
   -6.4520    3.9570  -56.4990 C   0  0  0  0  0  0  0  0  0  0  0  0
   -5.0990    3.9400  -56.2590 C   0  0  0  0  0  0  0  0  0  0  0  0
   -4.4740    2.7200  -56.2660 C   0  0  0  0  0  0  0  0  0  0  0  0
   -3.2450    2.6880  -56.0490 O   0  0  0  0  0  0  0  0  0  0  0  0
   -5.2000    1.6000  -56.5040 N   0  0  0  0  0  0  0  0  0  0  0  0
   -4.6870    5.2140  -56.0620 N   0  0  0  0  0  0  0  0  0  0  0  0
   -5.7480    6.0220  -56.1730 C   0  0  0  0  0  0  0  0  0  0  0  0
   -6.8250    5.2690  -56.4390 N   0  0  0  0  0  0  0  0  0  0  0  0
   -7.8620   -2.1140  -58.4200 H   0  0  0  0  0  0  0  0  0  0  0  0
   -8.8470   -1.6190  -57.0270 H   0  0  0  0  0  0  0  0  0  0  0  0
   -7.5530   -2.9230  -56.8660 H   0  0  0  0  0  0  0  0  0  0  0  0
   -8.3500    0.5910  -57.1650 H   0  0  0  0  0  0  0  0  0  0  0  0
   -4.6790    0.6970  -56.4990 H   0  0  0  0  0  0  0  0  0  0  0  0
   -3.7080    5.4750  -55.8620 H   0  0  0  0  0  0  0  0  0  0  0  0
   -5.7740    7.1190  -56.0710 H   0  0  0  0  0  0  0  0  0  0  0  0
  1  2  1  0  0  0  0
  1 15  1  0  0  0  0
  1 16  1  0  0  0  0
  1 17  1  0  0  0  0
  2  3  2  0  0  0  0
  2  4  1  0  0  0  0
  4  5  1  0  0  0  0
  4 18  1  0  0  0  0
  5  6  2  0  0  0  0
  5 11  1  0  0  0  0
  6  7  1  0  0  0  0
  7  8  2  0  0  0  0
  7 14  1  0  0  0  0
  8  9  1  0  0  0  0
  8 12  1  0  0  0  0
  9 10  2  0  0  0  0
  9 11  1  0  0  0  0
 11 19  1  0  0  0  0
 12 13  1  0  0  0  0
 12 20  1  0  0  0  0
 13 14  2  0  0  0  0
 13 21  1  0  0  0  0
M  END
$$$$
gua007_6uc8
  MOE2018           3D

 18 19  0  0  0  0  0  0  0  0999 V2000
   -5.1220    3.9350  -56.2640 C   0  0  0  0  0  0  0  0  0  0  0  0
   -6.4770    3.9680  -56.5030 C   0  0  0  0  0  0  0  0  0  0  0  0
   -6.8230    5.2800  -56.4370 N   0  0  0  0  0  0  0  0  0  0  0  0
   -5.7360    6.0180  -56.1710 C   0  0  0  0  0  0  0  0  0  0  0  0
   -4.6660    5.2070  -56.0590 N   0  0  0  0  0  0  0  0  0  0  0  0
   -5.6460    7.4290  -56.0180 N   0  0  0  0  0  0  0  0  0  0  0  0
   -7.1430    2.8290  -56.7320 N   0  0  0  0  0  0  0  0  0  0  0  0
   -6.5260    1.6440  -56.7370 C   0  0  0  0  0  0  0  0  0  0  0  0
   -5.1880    1.5810  -56.5040 N   0  0  0  0  0  0  0  0  0  0  0  0
   -4.4880    2.7080  -56.2690 C   0  0  0  0  0  0  0  0  0  0  0  0
   -3.2490    2.6750  -56.0510 O   0  0  0  0  0  0  0  0  0  0  0  0
   -7.2290    0.4200  -56.9820 N   0  0  0  0  0  0  0  0  0  0  0  0
   -3.6720    5.4500  -55.8570 H   0  0  0  0  0  0  0  0  0  0  0  0
   -4.8750    7.9560  -56.5230 H   0  0  0  0  0  0  0  0  0  0  0  0
   -6.2800    7.9990  -55.4460 H   0  0  0  0  0  0  0  0  0  0  0  0
   -4.7320    0.6400  -56.5140 H   0  0  0  0  0  0  0  0  0  0  0  0
   -6.9490   -0.2070  -57.7880 H   0  0  0  0  0  0  0  0  0  0  0  0
   -8.0110    0.1000  -56.4080 H   0  0  0  0  0  0  0  0  0  0  0  0
  1  2  2  0  0  0  0
  1  5  1  0  0  0  0
  1 10  1  0  0  0  0
  2  3  1  0  0  0  0
  2  7  1  0  0  0  0
  3  4  2  0  0  0  0
  4  5  1  0  0  0  0
  4  6  1  0  0  0  0
  5 13  1  0  0  0  0
  6 14  1  0  0  0  0
  6 15  1  0  0  0  0
  7  8  2  0  0  0  0
  8  9  1  0  0  0  0
  8 12  1  0  0  0  0
  9 10  1  0  0  0  0
  9 16  1  0  0  0  0
 10 11  2  0  0  0  0
 12 17  1  0  0  0  0
 12 18  1  0  0  0  0
M  END
$$$$
gua008_6uc9
  MOE2018           3D

 35 37  0  0  0  0  0  0  0  0999 V2000
   -0.0860    4.8610  -55.2370 C   0  0  0  0  0  0  0  0  0  0  0  0
   -0.8760    4.1000  -54.1630 C   0  0  0  0  0  0  0  0  0  0  0  0
   -0.5930    2.5910  -54.2350 C   0  0  0  0  0  0  0  0  0  0  0  0
   -0.7970    1.9660  -55.6320 C   0  0  0  0  0  0  0  0  0  0  0  0
   -0.1030    2.8100  -56.7240 C   0  0  0  0  0  0  0  0  0  0  0  0
   -0.3880    4.3190  -56.6410 C   0  0  0  0  0  0  0  0  0  0  0  0
   -2.2650    1.6000  -55.9520 C   0  0  0  0  0  0  0  0  0  0  0  0
   -3.0430    2.8160  -56.0010 O   0  0  0  0  0  0  0  0  0  0  0  0
   -4.3740    2.8090  -56.2390 C   0  0  0  0  0  0  0  0  0  0  0  0
   -5.0190    1.6990  -56.4630 N   0  0  0  0  0  0  0  0  0  0  0  0
   -6.3500    1.8170  -56.6830 C   0  0  0  0  0  0  0  0  0  0  0  0
   -7.0750    2.9090  -56.7120 N   0  0  0  0  0  0  0  0  0  0  0  0
   -6.3990    4.0460  -56.4800 C   0  0  0  0  0  0  0  0  0  0  0  0
   -5.0590    4.0110  -56.2440 C   0  0  0  0  0  0  0  0  0  0  0  0
   -4.6870    5.2940  -56.0530 N   0  0  0  0  0  0  0  0  0  0  0  0
   -5.7930    6.0580  -56.1790 C   0  0  0  0  0  0  0  0  0  0  0  0
   -6.8390    5.3380  -56.4360 N   0  0  0  0  0  0  0  0  0  0  0  0
   -6.9850    0.6580  -56.9130 N   0  0  0  0  0  0  0  0  0  0  0  0
    0.9820    4.7570  -55.0360 H   0  0  0  0  0  0  0  0  0  0  0  0
   -0.3410    5.9210  -55.1940 H   0  0  0  0  0  0  0  0  0  0  0  0
   -0.5900    4.4710  -53.1780 H   0  0  0  0  0  0  0  0  0  0  0  0
   -1.9420    4.2840  -54.2930 H   0  0  0  0  0  0  0  0  0  0  0  0
    0.4480    2.4340  -53.9450 H   0  0  0  0  0  0  0  0  0  0  0  0
   -1.2180    2.0720  -53.5060 H   0  0  0  0  0  0  0  0  0  0  0  0
   -0.2770    1.0060  -55.6140 H   0  0  0  0  0  0  0  0  0  0  0  0
    0.9740    2.6700  -56.6240 H   0  0  0  0  0  0  0  0  0  0  0  0
   -0.3920    2.4420  -57.7100 H   0  0  0  0  0  0  0  0  0  0  0  0
   -1.4300    4.5140  -56.8920 H   0  0  0  0  0  0  0  0  0  0  0  0
    0.2350    4.8410  -57.3690 H   0  0  0  0  0  0  0  0  0  0  0  0
   -2.3190    1.0910  -56.9150 H   0  0  0  0  0  0  0  0  0  0  0  0
   -2.6600    0.9420  -55.1760 H   0  0  0  0  0  0  0  0  0  0  0  0
   -3.7300    5.6270  -55.8490 H   0  0  0  0  0  0  0  0  0  0  0  0
   -5.7450    7.1130  -56.0690 H   0  0  0  0  0  0  0  0  0  0  0  0
   -7.8570    0.8030  -57.4300 H   0  0  0  0  0  0  0  0  0  0  0  0
   -6.3450   -0.0610  -57.2610 H   0  0  0  0  0  0  0  0  0  0  0  0
  1  2  1  0  0  0  0
  1  6  1  0  0  0  0
  1 19  1  0  0  0  0
  1 20  1  0  0  0  0
  2  3  1  0  0  0  0
  2 21  1  0  0  0  0
  2 22  1  0  0  0  0
  3  4  1  0  0  0  0
  3 23  1  0  0  0  0
  3 24  1  0  0  0  0
  4  5  1  0  0  0  0
  4  7  1  0  0  0  0
  4 25  1  0  0  0  0
  5  6  1  0  0  0  0
  5 26  1  0  0  0  0
  5 27  1  0  0  0  0
  6 28  1  0  0  0  0
  6 29  1  0  0  0  0
  7  8  1  0  0  0  0
  7 30  1  0  0  0  0
  7 31  1  0  0  0  0
  8  9  1  0  0  0  0
  9 10  1  0  0  0  0
  9 14  2  0  0  0  0
 10 11  2  0  0  0  0
 11 12  1  0  0  0  0
 11 18  1  0  0  0  0
 12 13  2  0  0  0  0
 13 14  1  0  0  0  0
 13 17  1  0  0  0  0
 14 15  1  0  0  0  0
 15 16  1  0  0  0  0
 15 32  1  0  0  0  0
 16 17  2  0  0  0  0
 16 33  1  0  0  0  0
 18 34  1  0  0  0  0
 18 35  1  0  0  0  0
M  END
$$$$
gua009_6ubu
  MOE2018           3D

 16 17  0  0  0  0  0  0  0  0999 V2000
   -5.7620    6.0420  -56.1740 C   0  0  0  0  0  0  0  0  0  0  0  0
   -6.8250    5.2570  -56.4400 N   0  0  0  0  0  0  0  0  0  0  0  0
   -6.4640    3.9680  -56.5000 C   0  0  0  0  0  0  0  0  0  0  0  0
   -5.1050    3.9400  -56.2600 C   0  0  0  0  0  0  0  0  0  0  0  0
   -4.7060    5.1950  -56.0670 N   0  0  0  0  0  0  0  0  0  0  0  0
   -4.4770    2.7180  -56.2660 C   0  0  0  0  0  0  0  0  0  0  0  0
   -3.2270    2.6390  -56.0510 O   0  0  0  0  0  0  0  0  0  0  0  0
   -5.1950    1.6040  -56.5030 N   0  0  0  0  0  0  0  0  0  0  0  0
   -6.5360    1.6440  -56.7390 C   0  0  0  0  0  0  0  0  0  0  0  0
   -7.1620    2.8310  -56.7360 N   0  0  0  0  0  0  0  0  0  0  0  0
   -7.2170    0.4260  -56.9790 N   0  0  0  0  0  0  0  0  0  0  0  0
   -5.7060    7.1160  -56.0600 H   0  0  0  0  0  0  0  0  0  0  0  0
   -3.7390    5.4810  -55.8660 H   0  0  0  0  0  0  0  0  0  0  0  0
   -4.7270    0.6600  -56.5110 H   0  0  0  0  0  0  0  0  0  0  0  0
   -6.7840   -0.4090  -57.4310 H   0  0  0  0  0  0  0  0  0  0  0  0
   -8.2170    0.3370  -56.6930 H   0  0  0  0  0  0  0  0  0  0  0  0
  1  2  2  0  0  0  0
  1  5  1  0  0  0  0
  1 12  1  0  0  0  0
  2  3  1  0  0  0  0
  3  4  2  0  0  0  0
  3 10  1  0  0  0  0
  4  5  1  0  0  0  0
  4  6  1  0  0  0  0
  5 13  1  0  0  0  0
  6  7  2  0  0  0  0
  6  8  1  0  0  0  0
  8  9  1  0  0  0  0
  8 14  1  0  0  0  0
  9 10  2  0  0  0  0
  9 11  1  0  0  0  0
 11 15  1  0  0  0  0
 11 16  1  0  0  0  0
M  END
$$$$
gua010_3gao
  MOE2018           3D

 15 16  0  0  0  0  0  0  0  0999 V2000
   -5.7610    6.0140  -56.1760 C   0  0  0  0  0  0  0  0  0  0  0  0
   -6.8450    5.2640  -56.4430 N   0  0  0  0  0  0  0  0  0  0  0  0
   -6.4980    3.9500  -56.5080 C   0  0  0  0  0  0  0  0  0  0  0  0
   -5.1300    3.9040  -56.2680 C   0  0  0  0  0  0  0  0  0  0  0  0
   -4.7260    5.1760  -56.0720 N   0  0  0  0  0  0  0  0  0  0  0  0
   -4.4820    2.6840  -56.2710 C   0  0  0  0  0  0  0  0  0  0  0  0
   -3.2490    2.6610  -56.0520 O   0  0  0  0  0  0  0  0  0  0  0  0
   -5.2050    1.5770  -56.5070 N   0  0  0  0  0  0  0  0  0  0  0  0
   -6.5290    1.6190  -56.7400 C   0  0  0  0  0  0  0  0  0  0  0  0
   -7.1790    0.5390  -56.9610 O   0  0  0  0  0  0  0  0  0  0  0  0
   -7.1480    2.8110  -56.7350 N   0  0  0  0  0  0  0  0  0  0  0  0
   -5.7150    7.0910  -56.0640 H   0  0  0  0  0  0  0  0  0  0  0  0
   -3.7390    5.4530  -55.8690 H   0  0  0  0  0  0  0  0  0  0  0  0
   -4.7400    0.6410  -56.5150 H   0  0  0  0  0  0  0  0  0  0  0  0
   -8.1710    2.8340  -56.9160 H   0  0  0  0  0  0  0  0  0  0  0  0
  1  2  2  0  0  0  0
  1  5  1  0  0  0  0
  1 12  1  0  0  0  0
  2  3  1  0  0  0  0
  3  4  2  0  0  0  0
  3 11  1  0  0  0  0
  4  5  1  0  0  0  0
  4  6  1  0  0  0  0
  5 13  1  0  0  0  0
  6  7  2  0  0  0  0
  6  8  1  0  0  0  0
  8  9  1  0  0  0  0
  8 14  1  0  0  0  0
  9 10  2  0  0  0  0
  9 11  1  0  0  0  0
 11 15  1  0  0  0  0
M  END
$$$$
gua011_3got
  MOE2018           3D

 15 16  0  0  0  0  0  0  0  0999 V2000
   -5.7480    5.9890  -56.1760 C   0  0  0  0  0  0  0  0  0  0  0  0
   -6.8460    5.2650  -56.4430 N   0  0  0  0  0  0  0  0  0  0  0  0
   -6.4870    3.9630  -56.5050 C   0  0  0  0  0  0  0  0  0  0  0  0
   -7.1850    2.8200  -56.7410 N   0  0  0  0  0  0  0  0  0  0  0  0
   -6.5510    1.6370  -56.7420 C   0  0  0  0  0  0  0  0  0  0  0  0
   -5.2280    1.6140  -56.5080 N   0  0  0  0  0  0  0  0  0  0  0  0
   -4.5180    2.7060  -56.2750 C   0  0  0  0  0  0  0  0  0  0  0  0
   -5.1300    3.9520  -56.2640 C   0  0  0  0  0  0  0  0  0  0  0  0
   -4.6640    5.2010  -56.0590 N   0  0  0  0  0  0  0  0  0  0  0  0
   -3.1170    2.6630  -56.0290 N   0  0  0  0  0  0  0  0  0  0  0  0
   -7.2180    0.4630  -56.9750 F   0  0  0  0  0  0  0  0  0  0  0  0
   -5.7410    7.0820  -56.0690 H   0  0  0  0  0  0  0  0  0  0  0  0
   -3.6780    5.4830  -55.8550 H   0  0  0  0  0  0  0  0  0  0  0  0
   -2.5210    3.5120  -56.1020 H   0  0  0  0  0  0  0  0  0  0  0  0
   -2.6930    1.7430  -55.7680 H   0  0  0  0  0  0  0  0  0  0  0  0
  1  2  2  0  0  0  0
  1  9  1  0  0  0  0
  1 12  1  0  0  0  0
  2  3  1  0  0  0  0
  3  4  1  0  0  0  0
  3  8  2  0  0  0  0
  4  5  2  0  0  0  0
  5  6  1  0  0  0  0
  5 11  1  0  0  0  0
  6  7  2  0  0  0  0
  7  8  1  0  0  0  0
  7 10  1  0  0  0  0
  8  9  1  0  0  0  0
  9 13  1  0  0  0  0
 10 14  1  0  0  0  0
 10 15  1  0  0  0  0
M  END
$$$$
gua012_3fo6
  MOE2018           3D

 19 20  0  0  0  0  0  0  0  0999 V2000
   -2.4960    1.4520  -56.0350 C   0  0  0  0  0  0  0  0  0  0  0  0
   -3.1300    2.7170  -56.0260 O   0  0  0  0  0  0  0  0  0  0  0  0
   -4.5090    2.7260  -56.2710 C   0  0  0  0  0  0  0  0  0  0  0  0
   -5.2090    1.6010  -56.5060 N   0  0  0  0  0  0  0  0  0  0  0  0
   -6.5330    1.6070  -56.7420 C   0  0  0  0  0  0  0  0  0  0  0  0
   -7.1340    2.8260  -56.7310 N   0  0  0  0  0  0  0  0  0  0  0  0
   -6.4820    3.9780  -56.5030 C   0  0  0  0  0  0  0  0  0  0  0  0
   -5.1280    3.9500  -56.2630 C   0  0  0  0  0  0  0  0  0  0  0  0
   -4.6570    5.1930  -56.0590 N   0  0  0  0  0  0  0  0  0  0  0  0
   -5.7380    6.0050  -56.1730 C   0  0  0  0  0  0  0  0  0  0  0  0
   -6.8370    5.2750  -56.4400 N   0  0  0  0  0  0  0  0  0  0  0  0
   -7.2650    0.4140  -56.9880 N   0  0  0  0  0  0  0  0  0  0  0  0
   -2.9540    0.7950  -56.8140 H   0  0  0  0  0  0  0  0  0  0  0  0
   -2.5710    0.9370  -55.0580 H   0  0  0  0  0  0  0  0  0  0  0  0
   -1.4270    1.5820  -56.3380 H   0  0  0  0  0  0  0  0  0  0  0  0
   -3.6630    5.4750  -55.8540 H   0  0  0  0  0  0  0  0  0  0  0  0
   -5.7250    7.0680  -56.0680 H   0  0  0  0  0  0  0  0  0  0  0  0
   -7.8130    0.3350  -57.8690 H   0  0  0  0  0  0  0  0  0  0  0  0
   -7.2980   -0.4020  -56.3470 H   0  0  0  0  0  0  0  0  0  0  0  0
  1  2  1  0  0  0  0
  1 13  1  0  0  0  0
  1 14  1  0  0  0  0
  1 15  1  0  0  0  0
  2  3  1  0  0  0  0
  3  4  1  0  0  0  0
  3  8  2  0  0  0  0
  4  5  2  0  0  0  0
  5  6  1  0  0  0  0
  5 12  1  0  0  0  0
  6  7  2  0  0  0  0
  7  8  1  0  0  0  0
  7 11  1  0  0  0  0
  8  9  1  0  0  0  0
  9 10  1  0  0  0  0
  9 16  1  0  0  0  0
 10 11  2  0  0  0  0
 10 17  1  0  0  0  0
 12 18  1  0  0  0  0
 12 19  1  0  0  0  0
M  END
$$$$
gua013_3ger
  MOE2018           3D

 15 16  0  0  0  0  0  0  0  0999 V2000
   -5.7680    5.9990  -56.1790 C   0  0  0  0  0  0  0  0  0  0  0  0
   -6.8790    5.2760  -56.4480 N   0  0  0  0  0  0  0  0  0  0  0  0
   -6.5260    3.9780  -56.5100 C   0  0  0  0  0  0  0  0  0  0  0  0
   -5.1660    3.9510  -56.2700 C   0  0  0  0  0  0  0  0  0  0  0  0
   -4.6970    5.1930  -56.0660 N   0  0  0  0  0  0  0  0  0  0  0  0
   -4.5230    2.7390  -56.2730 C   0  0  0  0  0  0  0  0  0  0  0  0
   -5.2200    1.5880  -56.5090 N   0  0  0  0  0  0  0  0  0  0  0  0
   -6.5450    1.6290  -56.7420 C   0  0  0  0  0  0  0  0  0  0  0  0
   -7.1610    2.8120  -56.7370 N   0  0  0  0  0  0  0  0  0  0  0  0
   -7.2860    0.4190  -56.9920 N   0  0  0  0  0  0  0  0  0  0  0  0
   -2.8010    2.7080  -55.9680 Cl  0  0  0  0  0  0  0  0  0  0  0  0
   -5.7000    7.0680  -56.0630 H   0  0  0  0  0  0  0  0  0  0  0  0
   -3.7080    5.4540  -55.8640 H   0  0  0  0  0  0  0  0  0  0  0  0
   -8.1900    0.4300  -57.4910 H   0  0  0  0  0  0  0  0  0  0  0  0
   -6.9030   -0.4920  -56.6620 H   0  0  0  0  0  0  0  0  0  0  0  0
  1  2  2  0  0  0  0
  1  5  1  0  0  0  0
  1 12  1  0  0  0  0
  2  3  1  0  0  0  0
  3  4  1  0  0  0  0
  3  9  2  0  0  0  0
  4  5  1  0  0  0  0
  4  6  2  0  0  0  0
  5 13  1  0  0  0  0
  6  7  1  0  0  0  0
  6 11  1  0  0  0  0
  7  8  2  0  0  0  0
  8  9  1  0  0  0  0
  8 10  1  0  0  0  0
 10 14  1  0  0  0  0
 10 15  1  0  0  0  0
M  END
$$$$
gua014_3g4m
  MOE2018           3D

 15 16  0  0  0  0  0  0  0  0999 V2000
   -4.4770    2.7160  -56.2670 C   0  0  0  0  0  0  0  0  0  0  0  0
   -5.1090    3.9530  -56.2600 C   0  0  0  0  0  0  0  0  0  0  0  0
   -6.4720    3.9860  -56.5000 C   0  0  0  0  0  0  0  0  0  0  0  0
   -7.1440    2.8250  -56.7330 N   0  0  0  0  0  0  0  0  0  0  0  0
   -6.5230    1.6380  -56.7370 C   0  0  0  0  0  0  0  0  0  0  0  0
   -5.2000    1.6060  -56.5040 N   0  0  0  0  0  0  0  0  0  0  0  0
   -7.2310    0.4110  -56.9830 N   0  0  0  0  0  0  0  0  0  0  0  0
   -6.8120    5.2800  -56.4350 N   0  0  0  0  0  0  0  0  0  0  0  0
   -5.7390    6.0420  -56.1700 C   0  0  0  0  0  0  0  0  0  0  0  0
   -4.6830    5.2230  -56.0600 N   0  0  0  0  0  0  0  0  0  0  0  0
   -3.4200    2.7240  -56.0770 H   0  0  0  0  0  0  0  0  0  0  0  0
   -7.9200    0.3780  -57.7660 H   0  0  0  0  0  0  0  0  0  0  0  0
   -7.0580   -0.4430  -56.3810 H   0  0  0  0  0  0  0  0  0  0  0  0
   -5.6700    7.1250  -56.0520 H   0  0  0  0  0  0  0  0  0  0  0  0
   -3.6930    5.5250  -55.8540 H   0  0  0  0  0  0  0  0  0  0  0  0
  1  2  1  0  0  0  0
  1  6  2  0  0  0  0
  1 11  1  0  0  0  0
  2  3  2  0  0  0  0
  2 10  1  0  0  0  0
  3  4  1  0  0  0  0
  3  8  1  0  0  0  0
  4  5  2  0  0  0  0
  5  6  1  0  0  0  0
  5  7  1  0  0  0  0
  7 12  1  0  0  0  0
  7 13  1  0  0  0  0
  8  9  2  0  0  0  0
  9 10  1  0  0  0  0
  9 14  1  0  0  0  0
 10 15  1  0  0  0  0
M  END
$$$$
gua015
  MOE2018           3D

 27 28  0  0  0  0  0  0  0  0999 V2000
   -7.5500   -2.5140  -58.5910 C   0  0  0  0  0  0  0  0  0  0  0  0
   -7.9090   -1.7390  -57.3130 C   0  0  0  0  0  0  0  0  0  0  0  0
   -7.9860   -2.7490  -56.1560 C   0  0  0  0  0  0  0  0  0  0  0  0
   -6.8090   -0.7280  -57.0180 C   0  0  0  0  0  0  0  0  0  0  0  0
   -5.6490   -1.0450  -56.8410 O   0  0  0  0  0  0  0  0  0  0  0  0
   -7.2170    0.5730  -56.9640 N   0  0  0  0  0  0  0  0  0  0  0  0
   -6.5080    1.7190  -56.7260 C   0  0  0  0  0  0  0  0  0  0  0  0
   -7.1560    2.8320  -56.7340 N   0  0  0  0  0  0  0  0  0  0  0  0
   -6.4410    3.9830  -56.4950 C   0  0  0  0  0  0  0  0  0  0  0  0
   -5.1150    3.9240  -56.2640 C   0  0  0  0  0  0  0  0  0  0  0  0
   -4.4010    2.7110  -56.2530 C   0  0  0  0  0  0  0  0  0  0  0  0
   -3.2030    2.5930  -56.0510 O   0  0  0  0  0  0  0  0  0  0  0  0
   -5.1570    1.6100  -56.4950 N   0  0  0  0  0  0  0  0  0  0  0  0
   -4.7180    5.1920  -56.0700 N   0  0  0  0  0  0  0  0  0  0  0  0
   -5.8060    5.9720  -56.1880 C   0  0  0  0  0  0  0  0  0  0  0  0
   -6.8650    5.2640  -56.4460 N   0  0  0  0  0  0  0  0  0  0  0  0
   -6.5940   -3.0220  -58.4500 H   0  0  0  0  0  0  0  0  0  0  0  0
   -8.3360   -3.2410  -58.7980 H   0  0  0  0  0  0  0  0  0  0  0  0
   -7.4730   -1.8050  -59.4170 H   0  0  0  0  0  0  0  0  0  0  0  0
   -8.8650   -1.2480  -57.4360 H   0  0  0  0  0  0  0  0  0  0  0  0
   -8.2220   -2.2090  -55.2380 H   0  0  0  0  0  0  0  0  0  0  0  0
   -7.0240   -3.2540  -56.0510 H   0  0  0  0  0  0  0  0  0  0  0  0
   -8.7710   -3.4750  -56.3710 H   0  0  0  0  0  0  0  0  0  0  0  0
   -8.2130    0.7510  -57.1250 H   0  0  0  0  0  0  0  0  0  0  0  0
   -4.7160    0.6770  -56.5070 H   0  0  0  0  0  0  0  0  0  0  0  0
   -3.7550    5.5110  -55.8670 H   0  0  0  0  0  0  0  0  0  0  0  0
   -5.7400    7.0250  -56.0740 H   0  0  0  0  0  0  0  0  0  0  0  0
  1  2  1  0  0  0  0
  1 17  1  0  0  0  0
  1 18  1  0  0  0  0
  1 19  1  0  0  0  0
  2  3  1  0  0  0  0
  2  4  1  0  0  0  0
  2 20  1  0  0  0  0
  3 21  1  0  0  0  0
  3 22  1  0  0  0  0
  3 23  1  0  0  0  0
  4  5  2  0  0  0  0
  4  6  1  0  0  0  0
  6  7  1  0  0  0  0
  6 24  1  0  0  0  0
  7  8  2  0  0  0  0
  7 13  1  0  0  0  0
  8  9  1  0  0  0  0
  9 10  2  0  0  0  0
  9 16  1  0  0  0  0
 10 11  1  0  0  0  0
 10 14  1  0  0  0  0
 11 12  2  0  0  0  0
 11 13  1  0  0  0  0
 13 25  1  0  0  0  0
 14 15  1  0  0  0  0
 14 26  1  0  0  0  0
 15 16  2  0  0  0  0
 15 27  1  0  0  0  0
M  END
$$$$
gua016
  MOE2018           3D

 30 31  0  0  0  0  0  0  0  0999 V2000
   -7.8530   -2.8330  -56.1320 C   0  0  0  0  0  0  0  0  0  0  0  0
   -7.8110   -1.8390  -57.3050 C   0  0  0  0  0  0  0  0  0  0  0  0
   -9.2390   -1.2900  -57.5080 C   0  0  0  0  0  0  0  0  0  0  0  0
   -7.4130   -2.5960  -58.5840 C   0  0  0  0  0  0  0  0  0  0  0  0
   -6.7720   -0.7370  -57.0120 C   0  0  0  0  0  0  0  0  0  0  0  0
   -5.6000   -0.9980  -56.8280 O   0  0  0  0  0  0  0  0  0  0  0  0
   -7.2030    0.5630  -56.9620 N   0  0  0  0  0  0  0  0  0  0  0  0
   -6.5070    1.7180  -56.7260 C   0  0  0  0  0  0  0  0  0  0  0  0
   -7.1590    2.8280  -56.7350 N   0  0  0  0  0  0  0  0  0  0  0  0
   -6.4410    3.9780  -56.4950 C   0  0  0  0  0  0  0  0  0  0  0  0
   -5.1130    3.9210  -56.2630 C   0  0  0  0  0  0  0  0  0  0  0  0
   -4.3990    2.7060  -56.2540 C   0  0  0  0  0  0  0  0  0  0  0  0
   -3.2030    2.5550  -56.0550 O   0  0  0  0  0  0  0  0  0  0  0  0
   -5.1590    1.6140  -56.4950 N   0  0  0  0  0  0  0  0  0  0  0  0
   -4.7230    5.1910  -56.0710 N   0  0  0  0  0  0  0  0  0  0  0  0
   -5.8140    5.9680  -56.1900 C   0  0  0  0  0  0  0  0  0  0  0  0
   -6.8710    5.2560  -56.4480 N   0  0  0  0  0  0  0  0  0  0  0  0
   -8.5730   -3.6230  -56.3470 H   0  0  0  0  0  0  0  0  0  0  0  0
   -6.8590   -3.2650  -56.0010 H   0  0  0  0  0  0  0  0  0  0  0  0
   -8.1410   -2.2990  -55.2250 H   0  0  0  0  0  0  0  0  0  0  0  0
   -9.5670   -0.7810  -56.6010 H   0  0  0  0  0  0  0  0  0  0  0  0
   -9.2500   -0.6100  -58.3620 H   0  0  0  0  0  0  0  0  0  0  0  0
   -9.9120   -2.1250  -57.7100 H   0  0  0  0  0  0  0  0  0  0  0  0
   -7.3880   -1.8930  -59.4180 H   0  0  0  0  0  0  0  0  0  0  0  0
   -6.4210   -3.0290  -58.4410 H   0  0  0  0  0  0  0  0  0  0  0  0
   -8.1370   -3.3880  -58.7810 H   0  0  0  0  0  0  0  0  0  0  0  0
   -8.2020    0.7200  -57.1260 H   0  0  0  0  0  0  0  0  0  0  0  0
   -4.7200    0.6800  -56.5070 H   0  0  0  0  0  0  0  0  0  0  0  0
   -3.7610    5.5150  -55.8680 H   0  0  0  0  0  0  0  0  0  0  0  0
   -5.7510    7.0210  -56.0770 H   0  0  0  0  0  0  0  0  0  0  0  0
  1  2  1  0  0  0  0
  1 18  1  0  0  0  0
  1 19  1  0  0  0  0
  1 20  1  0  0  0  0
  2  3  1  0  0  0  0
  2  4  1  0  0  0  0
  2  5  1  0  0  0  0
  3 21  1  0  0  0  0
  3 22  1  0  0  0  0
  3 23  1  0  0  0  0
  4 24  1  0  0  0  0
  4 25  1  0  0  0  0
  4 26  1  0  0  0  0
  5  6  2  0  0  0  0
  5  7  1  0  0  0  0
  7  8  1  0  0  0  0
  7 27  1  0  0  0  0
  8  9  2  0  0  0  0
  8 14  1  0  0  0  0
  9 10  1  0  0  0  0
 10 11  2  0  0  0  0
 10 17  1  0  0  0  0
 11 12  1  0  0  0  0
 11 15  1  0  0  0  0
 12 13  2  0  0  0  0
 12 14  1  0  0  0  0
 14 28  1  0  0  0  0
 15 16  1  0  0  0  0
 15 29  1  0  0  0  0
 16 17  2  0  0  0  0
 16 30  1  0  0  0  0
M  END
$$$$
gua017
  MOE2018           3D

 19 20  0  0  0  0  0  0  0  0999 V2000
   -8.6570    0.4350  -57.2350 C   0  0  0  0  0  0  0  0  0  0  0  0
   -7.2470    0.4340  -56.9830 N   0  0  0  0  0  0  0  0  0  0  0  0
   -6.5120    1.6280  -56.7360 C   0  0  0  0  0  0  0  0  0  0  0  0
   -7.1410    2.8240  -56.7320 N   0  0  0  0  0  0  0  0  0  0  0  0
   -6.5050    3.9820  -56.5060 C   0  0  0  0  0  0  0  0  0  0  0  0
   -5.1470    3.9260  -56.2690 C   0  0  0  0  0  0  0  0  0  0  0  0
   -4.4600    2.7140  -56.2640 C   0  0  0  0  0  0  0  0  0  0  0  0
   -3.2280    2.6470  -56.0500 O   0  0  0  0  0  0  0  0  0  0  0  0
   -5.1880    1.6080  -56.5010 N   0  0  0  0  0  0  0  0  0  0  0  0
   -4.7300    5.1870  -56.0720 N   0  0  0  0  0  0  0  0  0  0  0  0
   -5.7610    6.0410  -56.1740 C   0  0  0  0  0  0  0  0  0  0  0  0
   -6.8390    5.2810  -56.4400 N   0  0  0  0  0  0  0  0  0  0  0  0
   -8.9730    1.2240  -57.9680 H   0  0  0  0  0  0  0  0  0  0  0  0
   -9.2590    0.5630  -56.3060 H   0  0  0  0  0  0  0  0  0  0  0  0
   -8.9740   -0.5250  -57.6800 H   0  0  0  0  0  0  0  0  0  0  0  0
   -6.7340   -0.4740  -56.9800 H   0  0  0  0  0  0  0  0  0  0  0  0
   -4.7190    0.6540  -56.5100 H   0  0  0  0  0  0  0  0  0  0  0  0
   -3.7390    5.4320  -55.8710 H   0  0  0  0  0  0  0  0  0  0  0  0
   -5.7730    7.1220  -56.0710 H   0  0  0  0  0  0  0  0  0  0  0  0
  1  2  1  0  0  0  0
  1 13  1  0  0  0  0
  1 14  1  0  0  0  0
  1 15  1  0  0  0  0
  2  3  1  0  0  0  0
  2 16  1  0  0  0  0
  3  4  2  0  0  0  0
  3  9  1  0  0  0  0
  4  5  1  0  0  0  0
  5  6  2  0  0  0  0
  5 12  1  0  0  0  0
  6  7  1  0  0  0  0
  6 10  1  0  0  0  0
  7  8  2  0  0  0  0
  7  9  1  0  0  0  0
  9 17  1  0  0  0  0
 10 11  1  0  0  0  0
 10 18  1  0  0  0  0
 11 12  2  0  0  0  0
 11 19  1  0  0  0  0
M  END
$$$$
gua018
  MOE2018           3D

 32 34  0  0  0  0  0  0  0  0999 V2000
  -12.8400   -3.2860  -57.3360 C   0  0  0  0  0  0  0  0  0  0  0  0
  -12.7900   -1.9070  -57.1430 C   0  0  0  0  0  0  0  0  0  0  0  0
  -11.5640   -1.2500  -57.1220 C   0  0  0  0  0  0  0  0  0  0  0  0
  -10.3910   -1.9800  -57.2950 C   0  0  0  0  0  0  0  0  0  0  0  0
  -10.4310   -3.3630  -57.4910 C   0  0  0  0  0  0  0  0  0  0  0  0
  -11.6630   -4.0120  -57.5100 C   0  0  0  0  0  0  0  0  0  0  0  0
   -9.2090   -1.2780  -57.2630 O   0  0  0  0  0  0  0  0  0  0  0  0
   -7.8870   -1.9230  -57.3050 C   0  0  0  0  0  0  0  0  0  0  0  0
   -6.8350   -0.8720  -57.0100 C   0  0  0  0  0  0  0  0  0  0  0  0
   -5.6230   -1.2140  -56.8250 O   0  0  0  0  0  0  0  0  0  0  0  0
   -7.2690    0.4460  -56.9650 N   0  0  0  0  0  0  0  0  0  0  0  0
   -6.4790    1.5960  -56.7200 C   0  0  0  0  0  0  0  0  0  0  0  0
   -7.1030    2.8110  -56.7180 N   0  0  0  0  0  0  0  0  0  0  0  0
   -6.4800    3.9720  -56.5010 C   0  0  0  0  0  0  0  0  0  0  0  0
   -5.1270    3.9570  -56.2650 C   0  0  0  0  0  0  0  0  0  0  0  0
   -4.4920    2.7460  -56.2660 C   0  0  0  0  0  0  0  0  0  0  0  0
   -3.2450    2.6800  -56.0530 O   0  0  0  0  0  0  0  0  0  0  0  0
   -5.1650    1.6100  -56.4880 N   0  0  0  0  0  0  0  0  0  0  0  0
   -4.6880    5.2220  -56.0720 N   0  0  0  0  0  0  0  0  0  0  0  0
   -5.7650    6.0170  -56.1870 C   0  0  0  0  0  0  0  0  0  0  0  0
   -6.8480    5.2700  -56.4460 N   0  0  0  0  0  0  0  0  0  0  0  0
  -13.7760   -3.7850  -57.3510 H   0  0  0  0  0  0  0  0  0  0  0  0
  -13.6880   -1.3580  -57.0110 H   0  0  0  0  0  0  0  0  0  0  0  0
  -11.5180   -0.2020  -56.9760 H   0  0  0  0  0  0  0  0  0  0  0  0
   -9.5450   -3.9240  -57.6290 H   0  0  0  0  0  0  0  0  0  0  0  0
  -11.7070   -5.0610  -57.6580 H   0  0  0  0  0  0  0  0  0  0  0  0
   -7.7080   -2.3080  -58.2990 H   0  0  0  0  0  0  0  0  0  0  0  0
   -7.8220   -2.6780  -56.5350 H   0  0  0  0  0  0  0  0  0  0  0  0
   -8.2980    0.6270  -57.1290 H   0  0  0  0  0  0  0  0  0  0  0  0
   -4.6300    0.7120  -56.4770 H   0  0  0  0  0  0  0  0  0  0  0  0
   -3.6920    5.4720  -55.8740 H   0  0  0  0  0  0  0  0  0  0  0  0
   -5.7340    7.0900  -56.0830 H   0  0  0  0  0  0  0  0  0  0  0  0
  1  2  1  0  0  0  0
  1  6  2  0  0  0  0
  1 22  1  0  0  0  0
  2  3  2  0  0  0  0
  2 23  1  0  0  0  0
  3  4  1  0  0  0  0
  3 24  1  0  0  0  0
  4  5  2  0  0  0  0
  4  7  1  0  0  0  0
  5  6  1  0  0  0  0
  5 25  1  0  0  0  0
  6 26  1  0  0  0  0
  7  8  1  0  0  0  0
  8  9  1  0  0  0  0
  8 27  1  0  0  0  0
  8 28  1  0  0  0  0
  9 10  2  0  0  0  0
  9 11  1  0  0  0  0
 11 12  1  0  0  0  0
 11 29  1  0  0  0  0
 12 13  2  0  0  0  0
 12 18  1  0  0  0  0
 13 14  1  0  0  0  0
 14 15  2  0  0  0  0
 14 21  1  0  0  0  0
 15 16  1  0  0  0  0
 15 19  1  0  0  0  0
 16 17  2  0  0  0  0
 16 18  1  0  0  0  0
 18 30  1  0  0  0  0
 19 20  1  0  0  0  0
 19 31  1  0  0  0  0
 20 21  2  0  0  0  0
 20 32  1  0  0  0  0
M  END
$$$$
gua019
  MOE2018           3D

 27 29  0  0  1  0  0  0  0  0999 V2000
   -7.3630   -1.9480  -57.4440 C   0  0  0  0  0  0  0  0  0  0  0  0
   -6.4960   -0.7220  -57.3380 C   0  0  3  0  0  0  0  0  0  0  0  0
   -5.3990   -0.8810  -56.2950 C   0  0  0  0  0  0  0  0  0  0  0  0
   -4.4440    0.2810  -56.4970 C   0  0  3  0  0  0  0  0  0  0  0  0
   -5.1610    1.5410  -56.5030 N   0  0  0  0  0  0  0  0  0  0  0  0
   -4.4950    2.6900  -56.2720 C   0  0  0  0  0  0  0  0  0  0  0  0
   -3.2650    2.6700  -56.0540 O   0  0  0  0  0  0  0  0  0  0  0  0
   -5.1260    3.9250  -56.2650 C   0  0  0  0  0  0  0  0  0  0  0  0
   -6.4820    3.9840  -56.5020 C   0  0  0  0  0  0  0  0  0  0  0  0
   -6.8400    5.2800  -56.4400 N   0  0  0  0  0  0  0  0  0  0  0  0
   -5.7610    6.0460  -56.1730 C   0  0  0  0  0  0  0  0  0  0  0  0
   -4.7310    5.1960  -56.0720 N   0  0  0  0  0  0  0  0  0  0  0  0
   -7.1330    2.8290  -56.7310 N   0  0  0  0  0  0  0  0  0  0  0  0
   -6.4840    1.6380  -56.7300 C   0  0  0  0  0  0  0  0  0  0  0  0
   -7.2350    0.4640  -56.9780 N   0  0  0  0  0  0  0  0  0  0  0  0
   -3.8050    0.0830  -57.7110 O   0  0  0  0  0  0  0  0  0  0  0  0
   -7.8810   -1.8760  -58.4440 H   0  0  0  0  0  0  0  0  0  0  0  0
   -8.0800   -2.0650  -56.6320 H   0  0  0  0  0  0  0  0  0  0  0  0
   -6.6740   -2.8200  -57.5510 H   0  0  0  0  0  0  0  0  0  0  0  0
   -5.9730   -0.6100  -58.3120 H   0  0  0  0  0  0  0  0  0  0  0  0
   -5.8510   -0.8280  -55.2750 H   0  0  0  0  0  0  0  0  0  0  0  0
   -4.8650   -1.8260  -56.3830 H   0  0  0  0  0  0  0  0  0  0  0  0
   -3.7270    0.2760  -55.6320 H   0  0  0  0  0  0  0  0  0  0  0  0
   -5.7660    7.1340  -56.0680 H   0  0  0  0  0  0  0  0  0  0  0  0
   -3.7400    5.4680  -55.8680 H   0  0  0  0  0  0  0  0  0  0  0  0
   -8.2670    0.5030  -56.8930 H   0  0  0  0  0  0  0  0  0  0  0  0
   -2.8340    0.1720  -57.6690 H   0  0  0  0  0  0  0  0  0  0  0  0
  1  2  1  0  0  0  0
  1 17  1  0  0  0  0
  1 18  1  0  0  0  0
  1 19  1  0  0  0  0
  2  3  1  0  0  0  0
  2 15  1  0  0  0  0
  2 20  1  0  0  0  0
  3  4  1  0  0  0  0
  3 21  1  0  0  0  0
  3 22  1  0  0  0  0
  4  5  1  0  0  0  0
  4 16  1  0  0  0  0
  4 23  1  0  0  0  0
  5  6  1  0  0  0  0
  5 14  1  0  0  0  0
  6  7  2  0  0  0  0
  6  8  1  0  0  0  0
  8  9  2  0  0  0  0
  8 12  1  0  0  0  0
  9 10  1  0  0  0  0
  9 13  1  0  0  0  0
 10 11  2  0  0  0  0
 11 12  1  0  0  0  0
 11 24  1  0  0  0  0
 12 25  1  0  0  0  0
 13 14  2  0  0  0  0
 14 15  1  0  0  0  0
 15 26  1  0  0  0  0
 16 27  1  0  0  0  0
M  END
$$$$
gua020
  MOE2018           3D

 50 53  0  0  0  0  0  0  0  0999 V2000
   -0.0880    4.8490  -55.2320 C   0  0  0  0  0  0  0  0  0  0  0  0
   -0.3970    4.3210  -56.6300 C   0  0  0  0  0  0  0  0  0  0  0  0
   -0.1130    2.8200  -56.7230 C   0  0  0  0  0  0  0  0  0  0  0  0
   -0.8000    1.9730  -55.6400 C   0  0  0  0  0  0  0  0  0  0  0  0
   -0.5960    2.5880  -54.2470 C   0  0  0  0  0  0  0  0  0  0  0  0
   -0.8760    4.0900  -54.1680 C   0  0  0  0  0  0  0  0  0  0  0  0
   -2.2590    1.6070  -55.9590 C   0  0  0  0  0  0  0  0  0  0  0  0
   -3.0320    2.8100  -55.9910 O   0  0  0  0  0  0  0  0  0  0  0  0
   -4.3610    2.8110  -56.2340 C   0  0  0  0  0  0  0  0  0  0  0  0
   -5.0150    1.7040  -56.4610 N   0  0  0  0  0  0  0  0  0  0  0  0
   -6.3460    1.8230  -56.6930 C   0  0  0  0  0  0  0  0  0  0  0  0
   -7.0520    2.9320  -56.7090 N   0  0  0  0  0  0  0  0  0  0  0  0
   -6.3770    4.0600  -56.4770 C   0  0  0  0  0  0  0  0  0  0  0  0
   -5.0390    4.0190  -56.2390 C   0  0  0  0  0  0  0  0  0  0  0  0
   -4.6710    5.3040  -56.0490 N   0  0  0  0  0  0  0  0  0  0  0  0
   -5.7800    6.0650  -56.1760 C   0  0  0  0  0  0  0  0  0  0  0  0
   -6.8250    5.3450  -56.4340 N   0  0  0  0  0  0  0  0  0  0  0  0
   -6.9540    0.6140  -56.9090 N   0  0  0  0  0  0  0  0  0  0  0  0
   -8.3160    0.3770  -57.1470 C   0  0  0  0  0  0  0  0  0  0  0  0
   -9.0560    1.1720  -58.0260 C   0  0  0  0  0  0  0  0  0  0  0  0
  -10.4010    0.8920  -58.2390 C   0  0  0  0  0  0  0  0  0  0  0  0
  -11.0180   -0.1880  -57.5950 C   0  0  0  0  0  0  0  0  0  0  0  0
  -10.2610   -0.9730  -56.7170 C   0  0  0  0  0  0  0  0  0  0  0  0
   -8.9150   -0.6990  -56.4960 C   0  0  0  0  0  0  0  0  0  0  0  0
  -12.7610   -0.5480  -57.8760 S   0  0  0  0  0  0  0  0  0  0  0  0
  -13.4180    0.6480  -58.2630 O   0  0  0  0  0  0  0  0  0  0  0  0
  -13.2640   -1.2470  -56.7500 O   0  0  0  0  0  0  0  0  0  0  0  0
  -12.7540   -1.5600  -59.1450 N   0  0  0  0  0  0  0  0  0  0  0  0
   -0.3370    5.9100  -55.1810 H   0  0  0  0  0  0  0  0  0  0  0  0
    0.9800    4.7390  -55.0350 H   0  0  0  0  0  0  0  0  0  0  0  0
    0.2230    4.8460  -57.3580 H   0  0  0  0  0  0  0  0  0  0  0  0
   -1.4400    4.5190  -56.8770 H   0  0  0  0  0  0  0  0  0  0  0  0
    0.9650    2.6800  -56.6260 H   0  0  0  0  0  0  0  0  0  0  0  0
   -0.4030    2.4580  -57.7100 H   0  0  0  0  0  0  0  0  0  0  0  0
   -0.2770    1.0150  -55.6280 H   0  0  0  0  0  0  0  0  0  0  0  0
   -1.2210    2.0660  -53.5200 H   0  0  0  0  0  0  0  0  0  0  0  0
    0.4440    2.4280  -53.9580 H   0  0  0  0  0  0  0  0  0  0  0  0
   -1.9420    4.2790  -54.2940 H   0  0  0  0  0  0  0  0  0  0  0  0
   -0.5880    4.4540  -53.1800 H   0  0  0  0  0  0  0  0  0  0  0  0
   -2.3130    1.1090  -56.9280 H   0  0  0  0  0  0  0  0  0  0  0  0
   -2.6490    0.9390  -55.1900 H   0  0  0  0  0  0  0  0  0  0  0  0
   -3.7150    5.6410  -55.8430 H   0  0  0  0  0  0  0  0  0  0  0  0
   -5.7340    7.1200  -56.0650 H   0  0  0  0  0  0  0  0  0  0  0  0
   -6.3460   -0.1740  -56.6690 H   0  0  0  0  0  0  0  0  0  0  0  0
   -8.5970    1.9860  -58.5260 H   0  0  0  0  0  0  0  0  0  0  0  0
  -10.9690    1.5060  -58.8920 H   0  0  0  0  0  0  0  0  0  0  0  0
  -10.7240   -1.7820  -56.2090 H   0  0  0  0  0  0  0  0  0  0  0  0
   -8.3510   -1.2960  -55.8270 H   0  0  0  0  0  0  0  0  0  0  0  0
  -12.4660   -1.1520  -60.0280 H   0  0  0  0  0  0  0  0  0  0  0  0
  -12.3580   -2.4770  -58.9710 H   0  0  0  0  0  0  0  0  0  0  0  0
  1  2  1  0  0  0  0
  1  6  1  0  0  0  0
  1 29  1  0  0  0  0
  1 30  1  0  0  0  0
  2  3  1  0  0  0  0
  2 31  1  0  0  0  0
  2 32  1  0  0  0  0
  3  4  1  0  0  0  0
  3 33  1  0  0  0  0
  3 34  1  0  0  0  0
  4  5  1  0  0  0  0
  4  7  1  0  0  0  0
  4 35  1  0  0  0  0
  5  6  1  0  0  0  0
  5 36  1  0  0  0  0
  5 37  1  0  0  0  0
  6 38  1  0  0  0  0
  6 39  1  0  0  0  0
  7  8  1  0  0  0  0
  7 40  1  0  0  0  0
  7 41  1  0  0  0  0
  8  9  1  0  0  0  0
  9 10  1  0  0  0  0
  9 14  2  0  0  0  0
 10 11  2  0  0  0  0
 11 12  1  0  0  0  0
 11 18  1  0  0  0  0
 12 13  2  0  0  0  0
 13 14  1  0  0  0  0
 13 17  1  0  0  0  0
 14 15  1  0  0  0  0
 15 16  1  0  0  0  0
 15 42  1  0  0  0  0
 16 17  2  0  0  0  0
 16 43  1  0  0  0  0
 18 19  1  0  0  0  0
 18 44  1  0  0  0  0
 19 20  1  0  0  0  0
 19 24  2  0  0  0  0
 20 21  2  0  0  0  0
 20 45  1  0  0  0  0
 21 22  1  0  0  0  0
 21 46  1  0  0  0  0
 22 23  2  0  0  0  0
 22 25  1  0  0  0  0
 23 24  1  0  0  0  0
 23 47  1  0  0  0  0
 24 48  1  0  0  0  0
 25 26  2  0  0  0  0
 25 27  2  0  0  0  0
 25 28  1  0  0  0  0
 28 49  1  0  0  0  0
 28 50  1  0  0  0  0
M  END
$$$$
gua021
  MOE2018           3D

 14 15  0  0  0  0  0  0  0  0999 V2000
   -5.7430    6.0570  -56.1690 C   0  0  0  0  0  0  0  0  0  0  0  0
   -6.8230    5.3040  -56.4350 N   0  0  0  0  0  0  0  0  0  0  0  0
   -6.4880    4.0040  -56.5010 C   0  0  0  0  0  0  0  0  0  0  0  0
   -5.1310    3.9290  -56.2660 C   0  0  0  0  0  0  0  0  0  0  0  0
   -4.7110    5.2030  -56.0670 N   0  0  0  0  0  0  0  0  0  0  0  0
   -4.4980    2.6940  -56.2730 C   0  0  0  0  0  0  0  0  0  0  0  0
   -3.2410    2.6610  -56.0510 O   0  0  0  0  0  0  0  0  0  0  0  0
   -5.1890    1.5560  -56.5060 N   0  0  0  0  0  0  0  0  0  0  0  0
   -6.5070    1.6560  -56.7320 C   0  0  0  0  0  0  0  0  0  0  0  0
   -7.1530    2.8470  -56.7320 N   0  0  0  0  0  0  0  0  0  0  0  0
   -5.6520    7.1300  -56.0490 H   0  0  0  0  0  0  0  0  0  0  0  0
   -3.7140    5.4660  -55.8640 H   0  0  0  0  0  0  0  0  0  0  0  0
   -4.6690    0.6470  -56.5020 H   0  0  0  0  0  0  0  0  0  0  0  0
   -7.0730    0.7580  -56.9210 H   0  0  0  0  0  0  0  0  0  0  0  0
  1  2  2  0  0  0  0
  1  5  1  0  0  0  0
  1 11  1  0  0  0  0
  2  3  1  0  0  0  0
  3  4  2  0  0  0  0
  3 10  1  0  0  0  0
  4  5  1  0  0  0  0
  4  6  1  0  0  0  0
  5 12  1  0  0  0  0
  6  7  2  0  0  0  0
  6  8  1  0  0  0  0
  8  9  1  0  0  0  0
  8 13  1  0  0  0  0
  9 10  2  0  0  0  0
  9 14  1  0  0  0  0
M  END
$$$$
gua022
  MOE2018           3D

 16 17  0  0  0  0  0  0  0  0999 V2000
   -6.5120    1.6430  -56.7350 C   0  0  0  0  0  0  0  0  0  0  0  0
   -7.1180    2.8420  -56.7260 N   0  0  0  0  0  0  0  0  0  0  0  0
   -6.4720    4.0010  -56.4990 C   0  0  0  0  0  0  0  0  0  0  0  0
   -5.1180    3.9400  -56.2630 C   0  0  0  0  0  0  0  0  0  0  0  0
   -4.5110    2.7020  -56.2740 C   0  0  0  0  0  0  0  0  0  0  0  0
   -3.2740    2.6590  -56.0570 O   0  0  0  0  0  0  0  0  0  0  0  0
   -5.1810    1.5590  -56.5050 N   0  0  0  0  0  0  0  0  0  0  0  0
   -4.7040    5.1980  -56.0660 N   0  0  0  0  0  0  0  0  0  0  0  0
   -5.7380    6.0660  -56.1670 C   0  0  0  0  0  0  0  0  0  0  0  0
   -6.8240    5.3030  -56.4350 N   0  0  0  0  0  0  0  0  0  0  0  0
   -5.6460    7.4680  -56.0150 N   0  0  0  0  0  0  0  0  0  0  0  0
   -7.0700    0.7150  -56.9240 H   0  0  0  0  0  0  0  0  0  0  0  0
   -4.7270    0.6160  -56.5150 H   0  0  0  0  0  0  0  0  0  0  0  0
   -3.7090    5.4670  -55.8620 H   0  0  0  0  0  0  0  0  0  0  0  0
   -4.7770    7.9740  -56.2660 H   0  0  0  0  0  0  0  0  0  0  0  0
   -6.4440    8.0180  -55.6480 H   0  0  0  0  0  0  0  0  0  0  0  0
  1  2  2  0  0  0  0
  1  7  1  0  0  0  0
  1 12  1  0  0  0  0
  2  3  1  0  0  0  0
  3  4  2  0  0  0  0
  3 10  1  0  0  0  0
  4  5  1  0  0  0  0
  4  8  1  0  0  0  0
  5  6  2  0  0  0  0
  5  7  1  0  0  0  0
  7 13  1  0  0  0  0
  8  9  1  0  0  0  0
  8 14  1  0  0  0  0
  9 10  2  0  0  0  0
  9 11  1  0  0  0  0
 11 15  1  0  0  0  0
 11 16  1  0  0  0  0
M  END
$$$$
gua023
  MOE2018           3D

 17 18  0  0  0  0  0  0  0  0999 V2000
   -5.0970    3.9580  -56.2570 C   0  0  0  0  0  0  0  0  0  0  0  0
   -6.4550    3.9770  -56.4980 C   0  0  0  0  0  0  0  0  0  0  0  0
   -6.8120    5.2820  -56.4350 N   0  0  0  0  0  0  0  0  0  0  0  0
   -5.7450    6.0460  -56.1700 C   0  0  0  0  0  0  0  0  0  0  0  0
   -5.6820    7.3050  -56.0370 O   0  0  0  0  0  0  0  0  0  0  0  0
   -4.6890    5.2190  -56.0620 N   0  0  0  0  0  0  0  0  0  0  0  0
   -7.1050    2.8240  -56.7260 N   0  0  0  0  0  0  0  0  0  0  0  0
   -6.5150    1.6160  -56.7380 C   0  0  0  0  0  0  0  0  0  0  0  0
   -5.1920    1.5860  -56.5040 N   0  0  0  0  0  0  0  0  0  0  0  0
   -4.4870    2.7060  -56.2690 C   0  0  0  0  0  0  0  0  0  0  0  0
   -3.2520    2.6820  -56.0510 O   0  0  0  0  0  0  0  0  0  0  0  0
   -7.2590    0.4130  -56.9880 N   0  0  0  0  0  0  0  0  0  0  0  0
   -7.7740    5.6110  -56.5750 H   0  0  0  0  0  0  0  0  0  0  0  0
   -3.6890    5.4660  -55.8590 H   0  0  0  0  0  0  0  0  0  0  0  0
   -4.6910    0.6850  -56.5020 H   0  0  0  0  0  0  0  0  0  0  0  0
   -7.8390    0.0110  -56.2140 H   0  0  0  0  0  0  0  0  0  0  0  0
   -7.2380   -0.0710  -57.9130 H   0  0  0  0  0  0  0  0  0  0  0  0
  1  2  2  0  0  0  0
  1  6  1  0  0  0  0
  1 10  1  0  0  0  0
  2  3  1  0  0  0  0
  2  7  1  0  0  0  0
  3  4  1  0  0  0  0
  3 13  1  0  0  0  0
  4  5  2  0  0  0  0
  4  6  1  0  0  0  0
  6 14  1  0  0  0  0
  7  8  2  0  0  0  0
  8  9  1  0  0  0  0
  8 12  1  0  0  0  0
  9 10  1  0  0  0  0
  9 15  1  0  0  0  0
 10 11  2  0  0  0  0
 12 16  1  0  0  0  0
 12 17  1  0  0  0  0
M  END
$$$$
gua024
  MOE2018           3D

 24 26  0  0  0  0  0  0  0  0999 V2000
   -1.6150    4.3490  -55.6250 C   0  0  0  0  0  0  0  0  0  0  0  0
   -1.0020    3.0930  -55.0560 C   0  0  0  0  0  0  0  0  0  0  0  0
   -2.4850    3.2760  -55.0480 C   0  0  0  0  0  0  0  0  0  0  0  0
   -3.1740    2.4660  -56.0320 N   0  0  0  0  0  0  0  0  0  0  0  0
   -4.5060    2.6470  -56.2650 C   0  0  0  0  0  0  0  0  0  0  0  0
   -5.1920    1.5680  -56.5050 N   0  0  0  0  0  0  0  0  0  0  0  0
   -6.5110    1.7320  -56.7210 C   0  0  0  0  0  0  0  0  0  0  0  0
   -7.1950    2.8460  -56.7370 N   0  0  0  0  0  0  0  0  0  0  0  0
   -6.4800    3.9600  -56.4970 C   0  0  0  0  0  0  0  0  0  0  0  0
   -5.1440    3.8850  -56.2610 C   0  0  0  0  0  0  0  0  0  0  0  0
   -4.7370    5.1630  -56.0810 N   0  0  0  0  0  0  0  0  0  0  0  0
   -5.8210    5.9550  -56.2040 C   0  0  0  0  0  0  0  0  0  0  0  0
   -6.8860    5.2630  -56.4530 N   0  0  0  0  0  0  0  0  0  0  0  0
   -7.1820    0.5930  -56.9590 N   0  0  0  0  0  0  0  0  0  0  0  0
   -1.4860    5.2460  -55.0360 H   0  0  0  0  0  0  0  0  0  0  0  0
   -1.5980    4.4400  -56.7030 H   0  0  0  0  0  0  0  0  0  0  0  0
   -0.5010    3.1870  -54.1020 H   0  0  0  0  0  0  0  0  0  0  0  0
   -0.5950    2.3890  -55.7710 H   0  0  0  0  0  0  0  0  0  0  0  0
   -2.9810    3.4330  -54.0960 H   0  0  0  0  0  0  0  0  0  0  0  0
   -2.9530    1.4610  -55.9770 H   0  0  0  0  0  0  0  0  0  0  0  0
   -3.7690    5.4720  -55.8950 H   0  0  0  0  0  0  0  0  0  0  0  0
   -5.7440    7.0080  -56.1000 H   0  0  0  0  0  0  0  0  0  0  0  0
   -6.5600   -0.1340  -57.3220 H   0  0  0  0  0  0  0  0  0  0  0  0
   -8.0440    0.7730  -57.4810 H   0  0  0  0  0  0  0  0  0  0  0  0
  1  2  1  0  0  0  0
  1  3  1  0  0  0  0
  1 15  1  0  0  0  0
  1 16  1  0  0  0  0
  2  3  1  0  0  0  0
  2 17  1  0  0  0  0
  2 18  1  0  0  0  0
  3  4  1  0  0  0  0
  3 19  1  0  0  0  0
  4  5  1  0  0  0  0
  4 20  1  0  0  0  0
  5  6  1  0  0  0  0
  5 10  2  0  0  0  0
  6  7  2  0  0  0  0
  7  8  1  0  0  0  0
  7 14  1  0  0  0  0
  8  9  2  0  0  0  0
  9 10  1  0  0  0  0
  9 13  1  0  0  0  0
 10 11  1  0  0  0  0
 11 12  1  0  0  0  0
 11 21  1  0  0  0  0
 12 13  2  0  0  0  0
 12 22  1  0  0  0  0
 14 23  1  0  0  0  0
 14 24  1  0  0  0  0
M  END
$$$$
